%NProcShared=4
#p ccsd(t)/6-311+G(3df) scf(MaxCyc=300)

 ccsd(t) iener

1 2
    C    0.600081   -0.944361    0.000000
    C    1.491727    0.000000    0.000000
    C   -0.717358   -1.195310    0.000000
    C    0.600081    0.944361    0.000000
    C   -1.257172    0.000000    0.000000
    C   -0.717358    1.195310    0.000000

