%NProcShared=6
#p ccsd(t)/6-311+G(3df) scf(MaxCyc=300)

 ccsd(t) iener

1 4
    C   -2.636856   -2.316724    1.615191
    C    2.852630    1.986454   -1.686969
    C    1.770667    1.500009   -1.077605
    C   -1.867909   -1.351492    1.109522
    C   -0.954756   -0.652845    0.560908
    C    0.873021    0.778032   -0.533609
    C   -0.036796    0.056564    0.012560

