%NProcShared=4
#p ccsd(t)/6-311+G(3df) scf(MaxCyc=300)

 ccsd(t) iener

1 2
    C    1.021874   -0.433857   -0.258961
    C    0.373240    1.093165    0.466240
    C   -0.501792   -0.003577   -1.140869
    C    0.078295    1.195752   -0.859038
    C   -0.379834   -0.873851    0.803188
    C   -0.815081   -1.139777   -0.458935
    C    0.223299    0.162145    1.448374

