%NProcShared=4
#p b3lyp/6-311++G(3df,2p) freq symmetry=Loose

 b3lyp opt

1 2
    S   -1.172871   -0.143197   -1.444511
    S    0.089024    2.015466    0.261278
    S   -0.171343    0.964089    1.781343
    S    1.219299   -1.346737    0.424100
    S    1.474612   -0.299205   -1.098596
    S   -1.438721   -1.190418    0.076386

