#p b3lyp/6-311+G(3df) opt freq symmetry=Loose 

 b3lyp opt

2 1
    6                  -0.748   -0.72     0.000000
    6                   0.748   -0.72     0.000000
    6                   1.378    0.39     0.000000
    6                  -1.378    0.39     0.000000
    6                   0.000    0.65     0.000000

