%NProcShared=2
#p b3lyp/6-311++G(3df,2p) freq symmetry=Loose

 b3lyp opt

1 2
  C            2.02406817         -0.00000000          0.00000000
  C           -0.53419749         -0.76159949          0.00000000
  C           -1.64120517         -0.00000000         -0.00000000
  C           -0.53419749          0.76159949          0.00000000
  C            0.68553200          0.00000000         -0.00000000

