%NProcShared=2
#p b3lyp/6-311++G(3df,2p) freq symmetry=Loose

 b3lyp opt

0 1
C  0.000143603  1.096159928  0.000000000
C  1.267611711  0.731634721  0.000000000
C -1.267419860  0.731966439 -0.000000000
C  0.949230792 -0.548204183  0.000000000
C -0.949373895 -0.547955744 -0.000000000
C -0.000191350 -1.463601160 -0.000000000

