%NProcShared=2
#p b3lyp/6-311++G(3df,2p) freq symmetry=Loose

 b3lyp opt

0 3
C -1.207439011 -0.037054784  0.903603169
C  2.556769760  0.024459664  0.892912398
C  0.011659118 -0.098478456  0.150660465
C  1.205836681  0.002382806  0.896749198
C  0.013257188  0.064239843  1.649616587
C  3.776164264  0.044386927  0.889449182

