%NProcShared=4
#p b3lyp/6-311+G(3df) freq symmetry=Loose

 b3lyp opt

2 1
C  0.960431319 -0.481900545  0.461162459
C -0.879847208 -0.090809836  0.764820513
C  0.879846875  0.090809503 -0.764819846
C -0.960431652  0.481900212 -0.461161793
C -0.092198695  0.655250661 -1.402674411
C  0.092198361 -0.655250995  1.402675078

