%NProcShared=4
#p b3lyp/6-311+G(3df) freq symmetry=Loose

 b3lyp opt

2 1
C  0.813766906 -0.751254489 -0.272418947
C -0.545463508 -0.931065857 -0.369321476
C -1.213303755  0.206161726  0.054563722
C -0.094090738  0.157521789  1.027491843
C -0.059674100  0.806613717 -0.659711277
C  1.098764195  0.512023114  0.219396136

