%NProcShared=2
#p b3lyp/6-311++G(3df,2p) freq symmetry=Loose

 b3lyp opt

0 1
C  0.579689864 -0.019463192  0.654205773
C -0.287655520  0.009658335 -0.324631788
C -1.989736143  0.066806489 -2.245504923
C  1.713750164  0.512742323  1.347171893
C  1.114598120 -0.607705107  1.844744359
C -1.130646485  0.037962152 -1.275984313

