%NProcShared=4
#p b3lyp/6-311+G(3df) freq symmetry=Loose

 b3lyp opt

1 4
    C   -0.579342    0.001048   -0.735917
    C    0.312464   -0.668796    0.576307
    C   -1.147768   -0.484648    0.532090
    C    0.762813    0.734338    0.770641
    C    0.041206    1.276239   -0.290746
    C    0.610628   -0.858181   -0.852376

