%NProcShared=4
#p b3lyp/6-311+G(3df) freq symmetry=Loose

 b3lyp opt

2 1
C  0.917098472  0.453831827 -0.035743449
C -0.393396628  0.793439491 -0.513812293
C -0.917098138 -0.453831494  0.035743449
C  0.393396961 -0.793439157  0.513812293
C -0.687097665 -1.636422817  0.721018654
C  0.687097998  1.636423150 -0.721018654

