%NProcShared=4
#p b3lyp/6-311+G(3df) freq symmetry=Loose

 b3lyp opt

2 3
C  0.988121226  0.397618637  0.010458911
C -0.488243619  0.784233122 -0.530273445
C -0.988121226 -0.397618637 -0.010458578
C  0.488243619 -0.784233122  0.530273778
C -0.632392798 -1.495155070  0.657615497
C  0.632392798  1.495155070 -0.657615163

