%NProcShared=4
#p b3lyp/6-311+G(3df) freq symmetry=Loose

 b3lyp opt

1 2
    C   -1.205450   -0.036993    0.903597
    C    2.544327    0.024257    0.892951
    C    0.034401   -0.100914    0.124914
    C    1.189278    0.002112    0.896796
    C    0.036055    0.067380    1.675234
    C    3.757638    0.044094    0.889499

