%NProcShared=2
#p b3lyp/6-311++G(3df,2p) freq symmetry=Loose

 b3lyp opt

0 1
C -0.054084695 -0.063934973 -0.052421899
C  1.518362271  0.437828045  1.466188878
C  0.139659178 -0.051858117  1.399270324
C -0.976973501  0.190787324 -0.943845277
C  1.403465328 -0.052171905  0.090764728
C  2.269097418  1.226598627  2.191089247

