%NProcShared=4
#p b3lyp/6-311+G(3df) freq symmetry=Loose

 b3lyp opt

1 4
    C    0.150852   -1.114693   -0.235194
    C    0.671734    0.929210   -0.071403
    C    0.059703   -0.010145   -1.148500
    C   -0.777193   -0.366879    0.763238
    C    0.762942   -0.175218    0.841783
    C   -0.868035    0.737724   -0.149923

