%NProcShared=4
#p b3lyp/6-311++G(3df,2p) freq symmetry=Loose

 b3lyp opt

0 1
    C   -0.162749    1.244827    0.839669
    C   -0.076205    0.000103    1.663950
    C    0.001566   -0.000517    0.039504
    C    1.660167    0.002554   -0.156926
    C    1.282016   -0.000706    1.126658
    C   -0.160224   -1.245633    0.840180

