%NProcShared=4
#p b3lyp/6-311+G(3df) freq symmetry=Loose

 b3lyp opt

2 1
    C    1.193244   -1.589598   -1.163309
    C   -0.954680    1.210949    0.150568
    C    0.451932   -0.613881   -0.457723
    C   -0.835359    0.020808   -0.533550
    C   -0.471363    0.766791    1.316273
    C    0.616227    0.204931    0.687739

