%NProcShared=4
#p b3lyp/6-311++G(3df,2p) freq symmetry=Loose

 b3lyp opt

0 3
    C   -0.043040   -0.068321    0.060285
    C    0.067427    0.034298    1.741863
    C   -0.828347   -0.879080    1.024309
    C    1.280797    0.005695    0.807377
    C    1.428143    1.426841    1.226031
    C    0.006071    1.251834    0.816268

