%NProcShared=4
#p b3lyp/6-311++G(3df,2p) freq symmetry=Loose

 b3lyp opt

0 1
    C    0.161916   -0.008143   -0.091426
    C   -1.539763    0.028136    3.470743
    C   -0.758505    0.010189    2.457707
    C    0.099057   -0.009645    1.478733
    C    1.278420   -0.038111    0.743468
    C   -0.795907    0.017891   -0.987589

