%NProcShared=4
#p b3lyp/6-311++G(3df,2p) freq symmetry=Loose

 b3lyp opt

0 3
    C    0.863363   -0.205745   -0.000000
    C   -0.347566    0.649867   -0.000000
    C    2.143981   -0.455885    0.000000
    C   -1.002511    1.773474    0.000000
    C   -1.206711   -1.907007    0.000000
    C   -0.450557   -0.788568   -0.000000

