%NProcShared=4
#p b3lyp/6-311+G(3df) freq symmetry=Loose

 b3lyp opt

2 3
    C   -1.932824   -0.167125    0.110995
    C    0.636595    0.055086   -0.036547
    C   -0.660682   -0.057051    0.037955
    C    1.884284    0.162935   -0.108200
    C   -3.188648   -0.275802    0.183042
    C    3.261276    0.281957   -0.187245

