%NProcShared=4
#p b3lyp/6-311+G(3df) freq symmetry=Loose

 b3lyp opt

2 1
C -0.334166758  0.927024880 -0.629663352
C -1.430421816  0.247431013 -0.546312130
C -0.916068339 -0.710762552  0.152169078
C  0.916068005  0.710761885 -0.152168744
C  1.430421483 -0.247431679  0.546312463
C  0.334166425 -0.927025547  0.629663686

