%NProcShared=4
#p b3lyp/6-311+G(3df) freq symmetry=Loose

 b3lyp opt

2 3
C -0.326572579  1.136130464 -0.748263330
C -1.217540528  0.210720000 -0.465013555
C -1.049462021 -0.897980031  0.222716556
C  0.864441460  0.688191206 -0.153721841
C  1.425668661 -0.246741205  0.544504142
C  0.303464008 -0.890321434  0.599779028

