%NProcShared=2
#p b3lyp/6-311++G(3df,2p) freq symmetry=Loose

 b3lyp opt

0 1
C  0.044228887  0.664775618  2.553746962
C -0.074098074 -0.000752573 -0.034782025
C  0.047065887 -0.662057382  2.554697962
C -0.719320496 -0.003007059 -1.255423166
C  0.740076092  0.000126813 -1.236688969
C  1.970348488  0.002447657 -1.668771836
C -0.005393786  0.000352927  1.302653072

