%NProcShared=2
#p b3lyp/6-311++G(3df,2p) freq symmetry=Loose

 b3lyp opt

0 3
C -0.000666243 -0.039946875  3.848414841
C  0.000489489  0.145944327  2.564724974
C  0.000343127  0.131039095  1.276326213
C  0.000255544  0.125127451  0.000001899
C  0.000245481  0.131171958 -1.276321796
C  0.000293272  0.146211308 -2.564719006
C -0.000960671 -0.039546263 -3.848428125

