%NProcShared=2
#p b3lyp/6-311++G(3df,2p) freq symmetry=Loose

 b3lyp opt

0 1
C  1.393423821  0.007317021 -0.517550398
C -0.022264532 -0.002495566  0.016538072
C  1.783647034  0.006589300  0.732049415
C  0.081626501 -0.008680509  2.787288135
C -0.020742062 -0.006012246  1.451338505
C  1.396076591  0.001189516  1.982463096
C  0.077268647  0.001385484 -1.319622825

