#p b3lyp/6-311+G(3df) opt freq symmetry=Loose

 b3lyp opt

1 4
    6       0.00     1.665    0.0
    6      -1.82    -0.29     0.0
    6       1.82    -0.29     0.0
    6      -0.72     0.510    0.0
    6       0.72     0.510    0.0
    6      -2.76    -1.05     0.0
    6       2.76    -1.05     0.0

