%NProcShared=4
#p b3lyp/6-311+G(3df) freq symmetry=Loose

 b3lyp opt

2 1
C  2.863034000  0.086967000  0.117545000
C  1.597886000  0.628972000  0.410114000
C -0.789309000 -0.292087352 -0.191540552
C  0.241421264  0.481619010  0.291419120
C -1.764053555 -0.932724943 -0.594229488
C -2.872087786 -1.621140687 -1.028345880
C  0.723109077  1.648393973  0.995037801

