%NProcShared=4
#p b3lyp/6-311+G(3df) freq symmetry=Loose

 b3lyp opt

1 2
    C   -0.822582   -0.369360   -1.161169
    C   -0.736883    1.019982   -1.027868
    C    1.308651   -0.178684    1.874681
    C    0.057263   -0.032567    1.432584
    C   -0.035551    0.158093   -0.036562
    C   -1.074002   -1.619170   -1.528968
    C    1.316229   -0.025303    0.548334

