%NProcShared=4
#p b3lyp/6-311++G(3df,2p) freq symmetry=Loose

 b3lyp opt

0 3
    C   -1.862703   -0.389287   -0.000000
    C    1.126322    0.696563   -0.000000
    C   -1.348794    0.902332    0.000000
    C    0.351511   -1.437130    0.000000
    C    1.443377   -0.654539    0.000000
    C   -0.081066    1.143731   -0.000000
    C   -0.908308   -1.330312   -0.000000

