%NProcShared=4
#p b3lyp/6-311+G(3df) freq symmetry=Loose

 b3lyp opt

2 3
C  1.013493396  0.941990655  0.932549730
C  1.869020962  1.737159970  1.719749488
C -0.317971912  0.553010517  0.729285741
C  0.957747808  0.041628891 -0.140605798
C -0.380693218 -0.353834821 -0.350288379
C -1.195687346 -1.111330370 -1.100191955
C -1.945909690 -1.808623842 -1.790496828

