%NProcShared=4
#p b3lyp/6-311+G(3df) freq symmetry=Loose

 b3lyp opt

2 3
    C   -2.628013   -2.282740    1.706055
    C    2.806745    2.012082   -1.761611
    C    1.826352    1.499964   -0.986311
    C   -1.910668   -1.371201    1.014030
    C   -0.970970   -0.673097    0.518281
    C    0.904386    0.772964   -0.498953
    C   -0.027832    0.042026    0.008508

