%NProcShared=4
#p b3lyp/6-311+G(3df) freq symmetry=Loose

 b3lyp opt

2 1
C  1.205368856 -0.421879898  0.313141176
C  0.910458596  0.778951964  0.541528490
C -0.452941491 -0.076439482 -0.182961684
C -0.411116562  1.257269914  0.202579182
C -1.329602752  2.304855320  0.165737582
C -0.136737694 -2.552318416 -0.758052753
C  0.214571047 -1.290439401 -0.281971993

