%NProcShared=4
#p b3lyp/6-311+G(3df) freq symmetry=Loose

 b3lyp opt

2 3
    C    0.054762   -1.509200   -0.462409
    C    1.567599    0.327322    0.234773
    C   -0.680930    1.128918    0.291386
    C    0.620222    1.370962    0.477123
    C   -1.622859    0.327532   -0.036792
    C   -1.046923   -0.801963   -0.337351
    C    1.108129   -0.843571   -0.166730

