%NProcShared=4
#p b3lyp/6-311++G(3df,2p) freq symmetry=Loose

 b3lyp opt

0 1
    C   -1.543987   -0.000025    0.000000
    C   -0.737674   -1.038710    0.000000
    C    0.365912   -1.785670    0.000000
    C    1.143756   -0.627225    0.000000
    C    1.143756    0.627233    0.000000
    C    0.365912    1.785678    0.000000
    C   -0.737674    1.038718    0.000000

