%NProcShared=4
#p b3lyp/6-311+G(3df) freq symmetry=Loose

 b3lyp opt

1 2
    C    1.155871   -0.077241    0.653461
    C    0.206939    0.138851   -0.717348
    C   -1.062169   -0.199882   -0.031852
    C   -0.158723    0.475424    0.936806
    C   -2.271026   -0.763357   -0.180542
    C    0.693364    1.293792    0.066020
    C    1.435743   -0.867586   -0.426422

