%NProcShared=4
#p b3lyp/6-311++G(3df,2p) freq symmetry=Loose

 b3lyp opt

0 1
    C   -1.396662    0.005525   -2.104460
    C   -2.155938    0.007781   -3.145524
    C   -0.756514   -0.013830    2.444301
    C    1.310618    0.001841    0.697785
    C    0.125769    0.001071   -0.030607
    C   -0.646941    0.003289   -1.074064
    C    0.094259   -0.006114    1.457338

