#p b3lyp/6-311+G(3df) opt freq symmetry=Loose

 b3lyp opt

1 4
    6      -1.69    0.00    0.000
    6      -0.94    1.18    0.000
    6      -0.94   -1.18    0.000
    6       0.31   -1.33    0.000
    6       0.31    1.33    0.000
    6       1.47    0.71    0.000
    6       1.47   -0.71    0.000

