%NProcShared=2
#p b3lyp/6-311++G(3df,2p) freq symmetry=Loose

 b3lyp opt

0 1
C -0.871941717 -0.362248195 -1.231321615
C -0.734883463  0.998264745 -1.025309067
C  1.347135128 -0.243531780  1.928929543
C  0.051370759 -0.024705387  1.397188905
C -0.027356052  0.230749320 -0.024140974
C -1.036063485 -1.627763547 -1.475104632
C  1.284863830 -0.017775155  0.530789840

