%NProcShared=4
#p b3lyp/6-311+G(3df) freq symmetry=Loose

 b3lyp opt

2 1
C -0.703194995 -1.817569625  1.462915063
C  0.423721345  1.095205528 -0.881502772
C -0.299704927 -0.774656498  0.623501099
C -0.688283216  0.598885202  0.617466914
C  1.086128741  0.035161629 -1.310099778
C  0.617519581 -0.781790133 -0.470251437
C -0.436186529  1.644763898 -0.042029088

