%NProcShared=2
#p b3lyp/6-311++G(3df,2p) freq symmetry=Loose

 b3lyp opt

0 1
C -0.820078953 -0.064124435  2.477336032
C  0.020821874 -0.048220831  1.488265802
C  0.011892113  0.088526998  0.020964264
C  1.268654299 -0.048360161  0.778304496
C -0.673713898 -0.633886999 -1.183919368
C -0.793581676 -1.910705008 -1.394349149
C  2.548513413 -0.064500563  0.560756379
C -0.611216171  0.759647999 -1.074346454

