%NProcShared=4
#p b3lyp/6-311++G(3df,2p) freq symmetry=Loose

 b3lyp opt

0 1
    C   -0.064662    1.506161    0.000000
    C   -1.298650    1.298650    0.000000
    C   -1.506161   -0.064662    0.000000
    C   -1.298650   -1.298650    0.000000
    C    0.064662   -1.506161    0.000000
    C    1.298650   -1.298650    0.000000
    C    1.506161    0.064662    0.000000
    C    1.298650    1.298650    0.000000

