%NProcShared=4
#p b3lyp/6-311++G(3df,2p) freq symmetry=Loose

 b3lyp opt

0 1
    C    0.000000    0.000000    4.484444
    C    0.000000    0.000000    3.195756
    C    0.000000    0.000000    1.908678
    C    0.000000    0.000000    0.639302
    C    0.000000    0.000000   -0.639302
    C    0.000000    0.000000   -1.908678
    C    0.000000    0.000000   -3.195756
    C    0.000000    0.000000   -4.484444

