%NProcShared=4
#p b3lyp/6-311++G(3df,2p) freq symmetry=Loose

 b3lyp opt

0 1
    C    0.663773    0.687907    0.000164
    C   -0.401967   -1.545618    0.001018
    C    3.164911   -0.398983   -0.000870
    C    0.633897   -0.662592    0.000306
    C   -1.538191   -0.931876    0.001090
    C   -0.427247    1.540472    0.000827
    C    1.979232    0.116212   -0.000607
    C   -1.549608    0.913162    0.001102
    C   -2.524801   -0.018684   -0.003031

