%NProcShared=4
#p b3lyp/6-311++G(3df,2p) freq symmetry=Loose

 b3lyp opt

0 1
    C   -0.517517   -0.044750   -0.878779
    C   -3.373248    0.055311    1.482855
    C    0.620857   -0.045041   -0.108497
    C   -1.953977    0.047015    1.745819
    C    0.455509   -0.002408    1.352974
    C    1.718552   -0.048431    0.655411
    C   -2.573501    0.021876    0.411241
    C   -1.739987   -0.021534   -0.681175
    C   -0.675867    0.037964    1.994833

