%NProcShared=4
#p b3lyp/6-311++G(3df,2p) freq symmetry=Loose

 b3lyp opt

0 3
    C    0.000000    0.000000    5.131292
    C    0.000000    0.000000    3.835730
    C    0.000000    0.000000    2.549751
    C    0.000000    0.000000    1.276408
    C    0.000000    0.000000    0.000000
    C    0.000000    0.000000   -1.276408
    C    0.000000    0.000000   -2.549751
    C    0.000000    0.000000   -3.835730
    C    0.000000    0.000000   -5.131292

