%NProcShared=4
#p b3lyp/6-311++G(3df,2p) freq symmetry=Loose

 b3lyp opt

0 1
    C   -0.002788    0.122368   -0.008825
    C    1.277878   -0.002418    0.757396
    C   -0.017440    0.004382    1.402171
    C   -0.478886    0.748717   -1.216321
    C   -0.660099   -0.080923    2.542946
    C   -1.312877   -0.159914    3.638353
    C   -0.650128   -0.631122   -1.233695
    C    2.575271   -0.021690    0.793585
    C   -0.942150   -1.896229   -1.305112

