%NProcShared=4
#p b3lyp/6-311++G(3df,2p) freq symmetry=Loose

 b3lyp opt

0 3
    C   -1.159645    0.000000   -2.266434
    C   -1.606934    0.000001   -3.492045
    C   -1.187656    0.000001    3.803594
    C    1.237482   -0.000000    0.813448
    C    2.470123    0.000001    0.366420
    C   -0.744837   -0.000001   -1.059992
    C   -0.180581   -0.000001    0.108214
    C   -0.001191   -0.000001    1.490983
    C   -0.597935    0.000000    2.676320

