%NProcShared=4
#p b3lyp/6-311++G(3df,2p) freq symmetry=Loose

 b3lyp opt

0 3
    C    2.430330   -0.009897   -0.293038
    C    1.447941   -0.008301    2.115079
    C    2.197999   -0.010085    1.016981
    C   -1.385360    0.005852   -0.437105
    C   -0.102005   -0.000009    0.079817
    C    0.330422   -0.002901    1.417656
    C    1.144616   -0.004335   -0.579873
    C   -2.371091    0.010931   -1.217500
    C   -3.442435    0.018898   -1.977222

