%NProcShared=1
#p b3lyp/6-311++G(3df,2p) freq symmetry=Loose

 b3lyp opt

3 2
C -1.850664950 -0.000178570 -0.000683083
C -0.402123849  0.000028767 -0.000275859
C  0.877684110  0.000211952  0.000083930
C  2.183429688  0.000398850  0.000451011
H -2.422923583 -0.984762020 -0.000844039
H -2.423205417  0.984241020 -0.000843961

