%NProcShared=1
#p b3lyp/6-311++G(3df,2p) freq symmetry=Loose

 b3lyp opt

3 4
C -1.511326999 -0.000037976 -0.000007160
C -0.151796001 -0.000007741  0.000006032
C  1.207325015  0.696261480  0.000115315
C  1.207355985 -0.696216511 -0.000076875
H -2.254682115 -0.000184210  0.939718146
H -2.254663884  0.000075195 -0.939746892

