%NProcShared=1
#p b3lyp/6-311++G(3df,2p) freq symmetry=Loose

 b3lyp opt

2 3
C -1.501824043 -0.000251413 -0.000175256
C -0.106059996 -0.000387266  0.000005867
C  1.145902054  0.659809733 -0.004980893
C  1.146451992 -0.659434487  0.005306755
H -2.056330832  0.008042524  0.955420731
H -2.056084254 -0.006862328 -0.955927406

