%NProcShared=1
#p b3lyp/6-311++G(3df,2p) freq symmetry=Loose

 b3lyp opt

3 2
C -1.829421743 -0.527986383 -0.001025702
C -0.628821014  0.383954966  0.000087483
C  0.737043901 -0.000656238  0.000232073
C  2.030603843 -0.199298378  0.000499651
H -0.927902883  1.032703366 -0.944759518
H -0.928522961  1.031212008  0.945760456

