%NProcShared=4
#p b3lyp/6-311++G(3df,2p) freq IOp(2/17=3) IOp(2/18=3)

 b3lyp opt

0 1
C  0.877117595 -0.640561183  0.000074444
C  0.876849336  0.640937767  0.000072839
C -0.457627049 -0.000091085 -0.000042940
C -1.744246879 -0.000360416 -0.000155329
H  1.344054897 -1.606806466  0.000116425
H  1.343382066  1.607378455  0.000112399

