%NProcShared=4
#p b3lyp/6-311++G(3df,2p) freq IOp(2/17=3) IOp(2/18=3)

 b3lyp opt

2 1
C -1.918012700 -0.000180429 -0.000259672
C -0.649124202 -0.000111843 -0.000279549
C  0.649124807 -0.000038637 -0.000162431
C  1.918013296 -0.000058551 -0.000000557
H -3.014776185 -0.000275167 -0.000233279
H  3.014776781 -0.000092313  0.000043799

