%NProcShared=4
#p b3lyp/6-311++G(3df,2p) freq symmetry=Loose

 b3lyp opt

1 4
    C   -1.658914   -0.651534   -0.020834
    C   -0.635576    0.477664   -0.006294
    C    0.725958    0.105525    0.008821
    C    1.888734   -0.277115   -0.006298
    H   -0.928700    1.167385   -0.813409
    H   -0.992514    0.905372    0.961037

