%NProcShared=1
#p b3lyp/6-311++G(3df,2p) freq symmetry=Loose

 b3lyp opt

0 1
C  1.159180000 -0.039152660  0.000277540
C -0.186036500 -0.807902160  0.000065045
C -1.159182000  0.039130340 -0.000213460
C  0.186034500  0.807879840 -0.000000965
H  2.195813740 -0.286714049  0.000515989
H -2.195815740  0.286691729 -0.000451909

