%NProcShared=4
#p b3lyp/6-311++G(3df,2p) freq symmetry=Loose

 b3lyp opt

0 3
    C   -1.775355   -0.500619    0.042142
    C   -0.631123    0.403787    0.010097
    C    0.725337   -0.078941    0.046936
    C    1.972020   -0.152164   -0.021833
    H   -0.956118    0.640126   -1.048117
    H   -0.789159    1.327495    0.584067

