%NProcShared=4
#p b3lyp/6-311++G(3df,2p) freq IOp(2/17=3) IOp(2/18=3)

 b3lyp opt

3 4
C -1.834373998 -0.553173994  0.000090886
C -0.626687000  0.397756000 -0.000017028
C  0.731915998  0.036474992 -0.000019793
C  2.028958000 -0.233975999 -0.000028606
H -0.899461607  1.058680173 -0.938895761
H -0.899416392  1.058835831  0.938765247

