%NProcShared=4
#p b3lyp/6-311++G(3df,2p) freq IOp(2/17=3) IOp(2/18=3)

 b3lyp opt

0 3
C  1.923227080  0.147314820 -0.000018763
C  0.639619080 -0.045314680 -0.000033273
C -0.639609920  0.045330320 -0.000008247
C -1.923217920 -0.147299180 -0.000022757
H  2.746416079 -0.555586664 -0.000124925
H -2.746406919  0.555602304  0.000083405

