%NProcShared=4
#p b3lyp/6-311++G(3df,2p) freq symmetry=Loose

 b3lyp opt

0 1
    C   -0.620193   -0.054000    0.298616
    C    0.628737    0.763290    0.091415
    C    1.785865    0.034493   -0.235437
    C    0.652799   -0.747310    0.010324
    C   -1.894298   -0.124637   -0.332764
    H   -2.324717    0.889058   -0.347142
    H   -0.987438   -0.122462    1.350269

