%NProcShared=1
#p b3lyp/6-311++G(3df,2p) freq symmetry=Loose

 b3lyp opt

2 1
C  2.285998001  0.650358981  0.000130998
C  1.306338997 -0.367160965 -0.000119892
C -0.121235003 -0.149625962 -0.000035000
C -1.333062998  0.019691969  0.000032997
C -2.696092999  0.169872980  0.000098811
H  1.674140308 -0.969168417 -0.900838537
H  1.674174695 -0.969645622  0.900265575

