%NProcShared=4
#p b3lyp/6-311++G(3df,2p) freq symmetry=Loose

 b3lyp opt

3 4
    C   -2.493578   -0.475737   -0.005620
    C   -1.269419   -0.074558    0.012114
    C    0.001623    0.572788    0.013732
    C    1.269933   -0.078552   -0.014119
    C    2.493050   -0.483443   -0.014327
    H   -0.048088    1.400383    0.852032
    H    0.055217    1.435836   -0.788335

