%NProcShared=4
#p b3lyp/6-311++G(3df,2p) freq IOp(2/17=3) IOp(2/18=3)

 b3lyp opt

2 1
C  1.922390733 -0.412710008  0.000071046
C  0.703538353 -0.120155033  0.000007866
C -0.703369820 -0.120855082 -0.000038577
C -1.921930459 -0.414622863 -0.000055857
C -0.000600827  1.256354963 -0.000123141
H -3.005122005 -0.566862301 -0.000079741
H  3.005733244 -0.563871425  0.000118681

