%NProcShared=1
#p b3lyp/6-311++G(3df,2p) freq symmetry=Loose

 b3lyp opt

1 4
C  0.418340936  0.000059004  0.107042128
C  1.789242892  0.000517794 -0.095706784
C -0.691680223 -0.908174363  0.187856362
C -1.599057881 -0.000235735 -0.328538239
C -0.692148716  0.907635201  0.188797515
H  2.326149118 -0.935983182 -0.178836886
H  2.325665776  0.937381368 -0.177865902

