%NProcShared=1
#p b3lyp/6-311++G(3df,2p) freq symmetry=Loose

 b3lyp opt

0 3
C -2.309636000  0.160796000  0.000028000
C -1.088261000 -0.082496000  0.000222000
C  0.163214000 -0.397471947  0.000471033
C  1.544864999 -0.409224875  0.000488939
C  1.884874002  0.880493766 -0.000495506
H -3.349220000  0.378162971 -0.000144994
H  2.178398994 -1.292075287  0.001168410

