%NProcShared=1
#p b3lyp/6-311++G(3df,2p) freq symmetry=Loose

 b3lyp opt

0 3
C -0.715015000 -0.094844000  0.000084000
C  0.419926000  0.907666000  0.000075000
C  1.409609979 -0.073083978 -0.000196091
C  0.418482976 -1.060079974 -0.000204058
C -2.011087957  0.000656954  0.000270299
H  0.383557066  1.985540930  0.000232813
H  2.484952953 -0.067433950 -0.000338616

