%NProcShared=4
#p b3lyp/6-311++G(3df,2p) freq IOp(2/17=3) IOp(2/18=3)

 b3lyp opt

3 2
C  2.410490946  0.000601314  0.000238358
C  1.104692928  0.000326283  0.000120219
C -0.225125956  0.000046193 -0.000000093
C -1.510640949 -0.000224566 -0.000116397
C -2.800425968 -0.000496224 -0.000233087
H  3.063998557  0.945289036  0.000291016
H  3.064396443 -0.943811036  0.000303984

