%NProcShared=4
#p b3lyp/6-311++G(3df,2p) freq symmetry=Loose

 b3lyp opt

2 1
    C    2.399604    0.000661   -0.001157
    C    1.114353    0.000600    0.000039
    C   -0.210275    0.000935    0.000771
    C   -1.456128   -0.000045    0.000741
    C   -2.845238   -0.001181   -0.000883
    H    2.992670    0.941619   -0.001610
    H    2.993306   -0.939901   -0.001647

