%NProcShared=1
#p b3lyp/6-311++G(3df,2p) freq symmetry=Loose

 b3lyp opt

0 1
C  0.012781003 -0.876288045 -0.000768171
C -1.252542002  0.168116036  0.000196614
C -0.083220381  0.397611154 -0.898884299
C  1.049677995  0.200627070  0.000096741
C -0.083120610  0.396070708  0.899539610
H  0.014101956 -1.947755317 -0.001686013
H  2.124433985  0.230936237  0.000063077

