%NProcShared=4
#p b3lyp/6-311++G(3df,2p) freq IOp(2/17=3) IOp(2/18=3)

 b3lyp opt

2 3
C -1.405107061  0.666992140  0.000163050
C -1.404960028 -0.667309929  0.000167946
C -0.178417977 -0.000023728  0.000061827
C  1.177245995  0.000125659 -0.000052751
C  2.433122082  0.000264050 -0.000158895
H -1.865915292  1.657937962  0.000198351
H -1.865549853 -1.658357284  0.000210520

