%NProcShared=1
#p b3lyp/6-311++G(3df,2p) freq symmetry=Loose

 b3lyp opt

1 4
C -1.157703000 -0.433290000  0.000077000
C  0.246921000 -0.221825000  0.000112000
C  1.344083011  0.669504947 -0.000154789
C  1.545855960 -0.647197810  0.000395872
C -2.002095971  0.592672861 -0.000411097
H  1.654981053  1.704569751 -0.000547336
H -1.517347057 -1.463768731  0.000463502

