%NProcShared=4
#p b3lyp/6-311++G(3df,2p) freq symmetry=Loose

 b3lyp opt

1 4
    C   -0.344773    0.230637   -0.003258
    C    1.092549    0.510756   -0.006783
    C   -1.508080   -0.138007    0.675347
    C    1.794197   -0.801464    0.011326
    C   -1.506774   -0.160780   -0.671505
    H    1.418345    1.090269    0.872512
    H    1.418939    1.062886   -0.903281

