%NProcShared=4
#p b3lyp/6-311++G(3df,2p) freq symmetry=Loose

 b3lyp opt

0 3
    C    1.543365    0.327016   -0.641024
    C    0.389088   -0.567765   -0.000511
    C   -0.948213   -0.131807   -0.000332
    C   -2.100077    0.228081   -0.000272
    C    1.543098    0.326553    0.641152
    H   -3.111871    0.550338    0.000695
    H    0.541716   -1.643190   -0.000290

