%NProcShared=4
#p b3lyp/6-311++G(3df,2p) freq IOp(2/17=3) IOp(2/18=3)

 b3lyp opt

2 1
C  0.770224054 -0.000088063  0.000065221
C -0.339330059  0.826133532 -0.000107369
C -1.563502017  0.000147627 -0.000100612
C -0.339496934 -0.826085527  0.000080111
C  2.202580964 -0.000232721  0.000167004
H -2.190113137  0.000314858  0.915919868
H -2.189982968  0.000106950 -0.916210137

