%NProcShared=4
#p b3lyp/6-311++G(3df,2p) freq symmetry=Loose

 b3lyp opt

1 4
    C   -0.645966   -0.117032    0.382177
    C    0.584590    0.852011    0.054672
    C    1.541608   -0.119899   -0.056779
    C    0.462007   -0.949288   -0.214234
    C   -1.878777    0.073275   -0.341488
    H    0.482724    1.839468   -0.394364
    H   -0.863497   -0.273869    1.448274

