%NProcShared=4
#p b3lyp/6-311++G(3df,2p) freq IOp(2/17=3) IOp(2/18=3)

 b3lyp opt

0 1
C  0.546898980 -0.000025443 -0.000033085
C -0.671448214 -0.752635362  0.000010631
C -1.871371964 -0.000018357  0.000169112
C -0.671443794  0.752591616  0.000126936
C  1.863704987 -0.000029302 -0.000143187
H  2.410980264  0.930302121 -0.000117061
H  2.410974799 -0.930363933 -0.000260830

