%NProcShared=1
#p b3lyp/6-311++G(3df,2p) freq symmetry=Loose

 b3lyp opt

2 1
C -1.870028509 -0.851678154 -0.000568750
C -0.673043283 -0.099240811 -0.000164801
C -0.000859665  1.288907388  0.000227320
C  0.673110600 -0.098374294  0.000144798
C  1.871063578 -0.849270021  0.000291653
H -0.001425840  1.828804643  0.950904705
H -0.000988804  1.829130055 -0.950265347

