%NProcShared=4
#p b3lyp/6-311++G(3df,2p) freq IOp(2/17=3) IOp(2/18=3)

 b3lyp opt

1 2
C  2.388254975  0.000363121 -0.000105624
C  1.082654955  0.000164766 -0.000047831
C -0.197118047 -0.000029666  0.000008819
C -1.467522036 -0.000222675  0.000065055
C -2.789678846 -0.000423546  0.000123581
H  2.950084589  0.934526039 -0.000130011
H  2.950368411 -0.933629039 -0.000130989

