%NProcShared=1
#p b3lyp/6-311++G(3df,2p) freq symmetry=Loose

 b3lyp opt

1 4
C  0.757563995 -0.000055955  0.352464023
C -0.467867993 -0.879595518 -0.042858030
C -1.515625990 -0.000086358 -0.072105042
C -0.467994993  0.879555482 -0.042304030
C  1.955761981  0.000264539 -0.390542919
H -2.579214991 -0.000106826 -0.250931037
H  1.011451996 -0.000375455  1.425197018

