%NProcShared=4
#p b3lyp/6-311++G(3df,2p) freq symmetry=Loose

 b3lyp opt

0 3
    C    0.827183    0.000010   -0.032268
    C   -0.354387    0.772082   -0.155733
    C   -1.577704   -0.000005    0.133656
    C   -0.354338   -0.772078   -0.155733
    C    2.177129    0.000001    0.119683
    H   -1.946310   -0.000016    1.158181
    H   -2.360986   -0.000042   -0.615811

