%NProcShared=1
#p b3lyp/6-311++G(3df,2p) freq symmetry=Loose

 b3lyp opt

1 4
C  1.929401000 -0.556996000 -0.000265000
C  0.974687000  0.227044000 -0.000277000
C -0.169910018  0.998046975 -0.000264221
C -1.178111997  0.074131004  0.000004750
C -1.978063979 -0.887797972  0.000254955
H  2.784355988 -1.201682016 -0.000263487
H -0.254937060  2.075705919 -0.000427315

