%NProcShared=4
#p b3lyp/6-311++G(3df,2p) freq IOp(2/17=3) IOp(2/18=3)

 b3lyp opt

0 3
C -2.537905997 -0.000631876 -0.000563767
C -1.301642997 -0.000635716 -0.000526050
C  0.000029000 -0.000356034 -0.000435808
C  1.301707000  0.000032803 -0.000326126
C  2.537950994  0.000686823 -0.000171249
H -3.599648000  0.000894000 -0.000325000
H  3.599671000  0.001160000 -0.000054000

