%NProcShared=1
#p b3lyp/6-311++G(3df,2p) freq symmetry=Loose

 b3lyp opt

3 4
C  0.883486618  0.760992343  0.055762230
C  0.881196782 -0.763654722  0.055556716
C -0.504293936 -1.044451750 -0.198713357
C -1.350535060  0.001995099  0.257624995
C -0.501154301  1.046018314 -0.198431574
H  1.776307001  1.443929195  0.086594938
H  1.771961750 -1.449278593  0.086204950

