%NProcShared=4
#p b3lyp/6-311++G(3df,2p) freq symmetry=Loose

 b3lyp opt

0 3
    C   -2.190385    0.472625    0.000047
    C   -1.244109   -0.483571   -0.000123
    C    0.101836   -0.237569    0.000220
    C    1.341260    0.001427   -0.000031
    C    2.620990    0.244744   -0.000055
    H   -2.241366    1.548335   -0.000205
    H   -1.536183   -1.534272   -0.000144

