%NProcShared=1
#p b3lyp/6-311++G(3df,2p) freq symmetry=Loose

 b3lyp opt

0 1
C  1.026023818 -0.007120732  0.000175095
C -0.358047059  0.036219411 -0.000090101
C -1.543048000 -0.570494000  0.000387000
C -1.552330769  0.828733394 -0.001144812
C  2.228995008 -0.031261053  0.000390794
H -2.097010120 -1.495406167  0.001311417
H  3.291321154 -0.050372069  0.000578861

