%NProcShared=1
#p b3lyp/6-311++G(3df,2p) freq symmetry=Loose

 b3lyp opt

1 4
C -0.664256000 -0.087198000  0.000333000
C  0.404330000  0.932749000  0.000266000
C  1.406695636 -0.075663662 -0.000807949
C  0.401335541 -1.086836574 -0.000771449
C -2.025014207 -0.006277737  0.001128217
H  0.373095760  2.012379294  0.000838783
H  2.488353594 -0.073014623 -0.001405604

