%NProcShared=1
#p b3lyp/6-311++G(3df,2p) freq symmetry=Loose

 b3lyp opt

3 2
C  1.473152970 -0.337308877 -0.000279977
C -0.000285057 -0.634770762 -0.000256207
C -1.472897974 -0.337714107  0.000008728
C -0.680558950  0.794326792  0.000390400
C  0.680504010  0.793766958  0.000256717
H  2.487647051 -0.835136212 -0.000581462
H -2.487140043 -0.834662824 -0.000093476

