%NProcShared=1
#p b3lyp/6-311++G(3df,2p) freq symmetry=Loose

 b3lyp opt

3 4
C -1.317039000  0.206309000 -0.001072000
C  0.046650000  0.661848000  0.001752000
C  1.242128128 -0.016858731  0.001470861
C  2.447294234 -0.480859610  0.001750555
C -2.084363290 -0.830241509 -0.004656209
H -2.207941493  0.970909963 -0.000200659
H  0.203733635  1.779501232  0.004801171

