%NProcShared=4
#p b3lyp/6-311++G(3df,2p) freq symmetry=Loose

 b3lyp opt

3 2
    C    1.410590   -1.185838   -0.102296
    C    0.622262    0.000217    0.023479
    C   -0.816263    0.016163    0.349207
    C   -1.954231   -0.006814   -0.277903
    C    1.431599    1.169414   -0.125293
    H   -3.011503   -0.019679   -0.659174
    H   -1.151558    0.061656    1.455647

