%NProcShared=4
#p b3lyp/6-311++G(3df,2p) freq symmetry=Loose

 b3lyp opt

2 3
    C   -0.591766   -0.082002    0.084814
    C    0.677415    0.832538    0.058708
    C    1.559664   -0.147984   -0.326031
    C    0.563881   -0.938155    0.250590
    C   -1.842333    0.008096   -0.110192
    H   -2.923184    0.119677   -0.238042
    H    0.720016    1.844908    0.489646

