%NProcShared=1
#p b3lyp/6-311++G(3df,2p) freq symmetry=Loose

 b3lyp opt

2 1
C  1.434435010 -0.287140950  0.000000409
C -0.035830995 -0.614280973 -0.000447689
C -1.770031873 -0.432166373 -0.000568187
C -0.798403097  0.619855518  0.000328404
C  0.502663954  0.873153772  0.000698933
H  2.001370783 -0.478930802  0.929548823
H  2.001640229 -0.477595139 -0.929658246

