%NProcShared=4
#p b3lyp/6-311++G(3df,2p) freq symmetry=Loose

 b3lyp opt

0 3
    C   -0.387168    0.098849    0.104754
    C    1.054022    0.351185    0.295847
    C   -1.503983   -0.679094    0.272556
    C    1.980808   -0.460164   -0.480369
    C   -1.588314    0.461938   -0.458568
    H    1.379185   -0.060761    1.280511
    H    1.288620    1.424476    0.314170

