%NProcShared=4
#p b3lyp/6-311++G(3df,2p) freq symmetry=Loose

 b3lyp opt

0 3
    C   -2.233375   -0.385913    0.001029
    C   -1.126436    0.104539    0.000988
    C    0.132093    0.691681   -0.000015
    C    1.298991   -0.045432   -0.000191
    C    2.428899   -0.523935   -0.000109
    H   -3.202712   -0.819395   -0.000278
    H    0.204264    1.773435    0.000361

