%NProcShared=1
#p b3lyp/6-311++G(3df,2p) freq symmetry=Loose

 b3lyp opt

1 2
C  0.648370010 -0.000068686 -0.035410001
C -0.503495733  0.888521297 -0.163489564
C -1.395015995  0.000156526  0.458821999
C -0.503685260 -0.888416701 -0.163463437
C  1.968763978 -0.000206544  0.166888003
H -0.644622840  1.764153651 -0.790067938
H -0.644999154 -1.764037355 -0.790016063

