%NProcShared=4
#p b3lyp/6-311++G(3df,2p) freq symmetry=Loose

 b3lyp opt

0 3
    C   -1.446998   -0.597235    0.037595
    C   -0.205596    0.375349    0.426849
    C    1.069542    0.016838   -0.056505
    C    2.291108   -0.217159   -0.163682
    C   -1.374928    0.536190   -0.533002
    H   -0.227762    0.885890    1.384630
    H   -1.771011   -1.569780    0.347842

