%NProcShared=4
#p b3lyp/6-311++G(3df,2p) freq IOp(2/17=3) IOp(2/18=3)

 b3lyp opt

2 3
C  2.394514991  0.000283475 -0.000271452
C  1.070329969  0.000155727 -0.000142490
C -0.202105013  0.000032973 -0.000018569
C -1.496760989 -0.000091926  0.000107517
C -2.754352958 -0.000213249  0.000229993
H  2.964796421  0.944430009 -0.000327009
H  2.964978579 -0.943753009 -0.000326991

