%NProcShared=4
#p b3lyp/6-311++G(3df,2p) freq IOp(2/17=3) IOp(2/18=3)

 b3lyp opt

0 3
C -1.347299001 -0.840347005  0.000128877
C -1.517905001  0.603020992 -0.000043624
C -0.135284998 -0.277968990  0.000034387
C  1.162993009 -0.058378947 -0.000020111
C  2.420024992  0.195786951 -0.000077949
H -1.747611645  1.133546642 -0.920732480
H -1.747572359  1.133771340  0.920525521

