%NProcShared=4
#p b3lyp/6-311++G(3df,2p) freq symmetry=Loose

 b3lyp opt

1 2
    C   -0.753761   -0.061830    0.026628
    C    0.470460    0.818719    0.035431
    C    1.450548   -0.127009   -0.208676
    C    0.386772   -0.892921    0.238807
    C   -2.062548   -0.007576   -0.133788
    H    0.525253    1.803522    0.501691
    H    2.525919   -0.179816   -0.252101

