%NProcShared=1
#p b3lyp/6-311++G(3df,2p) freq symmetry=Loose

 b3lyp opt

3 2
C  1.430377736 -0.199179872  0.000655513
C -0.101971155 -0.698281925  0.000108615
C -1.535735671 -0.502694159 -0.000538658
C -0.911625833  0.705476919 -0.000521506
C  0.437406944  0.830960027  0.000024191
H  2.044242509 -0.408645041  0.946244313
H  2.045043242 -0.409031839 -0.944327166

