%NProcShared=4
#p b3lyp/6-311++G(3df,2p) freq IOp(2/17=3) IOp(2/18=3)

 b3lyp opt

0 1
C -2.384835007  0.292757243 -0.000140528
C -1.219575058 -0.082983096 -0.000064703
C  0.000083024 -0.640338978  0.000020873
C  1.219598856 -0.082671910  0.000064233
C  2.384762896  0.293365740  0.000111595
H -3.381837257  0.658733068 -0.000207088
H  3.381671734  0.659595945  0.000150434

