%NProcShared=1
#p b3lyp/6-311++G(3df,2p) freq symmetry=Loose

 b3lyp opt

1 2
C  0.794499820 -0.000078573  0.000153490
C -0.339368841  0.764919670 -0.000226755
C -1.602578732  0.000201031 -0.000472385
C -0.339547319 -0.764812278 -0.000058415
C  2.216017988 -0.000244385  0.000524647
H -2.187306291  0.000370308  0.917832178
H -2.186826699  0.000168108 -0.919082165

