%NProcShared=1
#p b3lyp/6-311++G(3df,2p) freq symmetry=Loose

 b3lyp opt

2 3
C  0.945638912  0.724391276  0.070894261
C  0.945918088 -0.724028769 -0.070876745
C -0.470990060 -0.820201768  0.175003928
C -1.513292006 -0.000286464 -0.000055155
C -0.471292934  0.820025276 -0.175060066
H  1.691766017  1.465472757  0.377641663
H  1.692342992 -1.464826365 -0.377585354

