%NProcShared=4
#p b3lyp/6-311++G(3df,2p) freq symmetry=Loose

 b3lyp opt

2 3
    C   -0.587011   -0.052630    0.329285
    C    0.643942    0.776300    0.082064
    C    1.717685    0.046996   -0.233988
    C    0.678218   -0.768057   -0.032591
    C   -1.835479   -0.055342   -0.290997
    H   -2.777784    0.464493   -0.537338
    H   -0.926346   -0.148089    1.414699

