%NProcShared=4
#p b3lyp/6-311++G(3df,2p) freq IOp(2/17=3) IOp(2/18=3)

 b3lyp opt

0 1
C -1.400213325  0.663544104 -0.000056019
C -1.399984765 -0.663974975 -0.000060922
C -0.156329970 -0.000001295 -0.000023991
C  1.175494044  0.000228007  0.000012929
C  2.434954033  0.000444849  0.000047843
H -1.962035177  1.582843002 -0.000068194
H -1.961490030 -1.583467276 -0.000079887

