%NProcShared=1
#p b3lyp/6-311++G(3df,2p) freq symmetry=Loose

 b3lyp opt

1 2
C  1.358628837 -0.336392189 -0.079564746
C  0.000042754 -0.673529898  0.000113312
C -1.358578165 -0.336498794  0.079648245
C -0.688016831  0.808569413 -0.146188341
C  0.687949165  0.808702499  0.145785642
H  2.319114431 -0.812429118  0.020110299
H -2.319014555 -0.812677261 -0.019824646

