%NProcShared=4
#p b3lyp/6-311++G(3df,2p) freq symmetry=Loose

 b3lyp opt

3 3
    C    0.223032   -0.309199    0.000776
    H    0.387587   -1.500033    0.006336
    C    1.465046    0.331479   -0.001926
    H   -1.749725    0.279639    0.991993
    C   -1.170503    0.135039   -0.000876
    H   -1.749234    0.273729   -0.994933

