%NProcShared=1
#p b3lyp/6-311++G(3df,2p) freq symmetry=Loose

 b3lyp opt

3 1
C  0.001028912 -1.228201927 -0.000000000
H  0.903820873 -2.079661296 -0.000000000
H -0.900265758 -2.081246065 -0.000000000
C -0.000110871  0.069317014  0.000000000
C -0.001298267  1.421037881  0.000000000
H -0.002323393  2.588031742  0.000000000

