%NProcShared=4
#p b3lyp/6-311++G(3df,2p) freq symmetry=Loose

 b3lyp opt

2 4
    C    1.092390    0.578366    0.000426
    H   -1.469041    0.417555    0.955300
    C   -0.979490    0.112749    0.000002
    H   -1.468390    0.421651   -0.954510
    C    0.278377   -0.559254   -0.000526
    H    0.589767   -1.630371   -0.000205

