%NProcShared=4
#p b3lyp/6-311++G(3df,2p) freq symmetry=Loose

 b3lyp opt

0 2
    C   -0.004123   -1.248772   -0.000000
    H    0.921508   -1.806856    0.000000
    H   -0.933499   -1.800529    0.000000
    C    0.000505    0.115274   -0.000000
    C    0.004699    1.335241    0.000000
    H    0.008271    2.396701    0.000000

