%NProcShared=1
#p b3lyp/6-311++G(3df,2p) freq symmetry=Loose

 b3lyp opt

1 1
C  0.678875925  0.391817599  0.000000000
H  1.614439304  0.931696593  0.000000000
C -0.000229610 -0.783842542 -0.000000000
H -0.000462377 -1.864003692 -0.000000000
C -0.678828391  0.392110174 -0.000000000
H -1.614159004  0.932392331 -0.000000000

