%NProcShared=4
#p b3lyp/6-311++G(3df,2p) freq symmetry=Loose

 b3lyp opt

2 2
    C   -0.831671   -0.788362    0.000000
    C    0.000000    0.380343    0.000000
    C    1.280677    0.572668    0.000000
    H   -1.924351   -0.659286    0.000000
    H   -0.390124   -1.793296    0.000000
    H   -0.379561    1.464692    0.000000

