%NProcShared=1
#p b3lyp/6-311++G(3df,2p) freq symmetry=Loose

 b3lyp opt

2 2
C  1.682294875 -0.259237434 -0.000635703
H  2.222260881 -0.440250461 -0.951170518
H  2.222680881 -0.442145461  0.949297482
C  0.416146023  0.373323895  0.000274855
H  0.654538175  1.485321208  0.001330969
C -0.865154975 -0.001169112  0.000184605
C -2.083198917 -0.213404373  0.000242166

