%NProcShared=1
#p b3lyp/6-311++G(3df,2p) freq symmetry=Loose

 b3lyp opt

0 4
C  0.000108156 -1.063686991  0.000000000
C  1.039435362 -0.078379821  0.000000000
C -0.000088101  0.913405991 -0.000000000
H -0.000195365  1.993984012 -0.000000000
C -1.039414643 -0.078586180 -0.000000000
H -2.114398923 -0.075461887 -0.000000000
H  2.114419001 -0.075042111  0.000000000

