%NProcShared=4
#p b3lyp/6-311++G(3df,2p) freq symmetry=Loose

 b3lyp opt

3 1
    C    0.690183   -0.973652    0.000000
    H    1.748697   -1.381123    0.000000
    C   -0.688778   -0.976350    0.000000
    H   -1.747678   -1.382999    0.000000
    C    0.000000    0.306437    0.000000
    C   -0.001125    1.638834    0.000000
    H   -0.002696    2.792511    0.000000

