%NProcShared=4
#p b3lyp/6-311++G(3df,2p) freq symmetry=Loose

 b3lyp opt

1 3
    C   -0.007472    1.055306    0.000000
    C   -1.048334   -0.026483    0.000000
    C    0.000000   -0.905336    0.000000
    H    0.078175   -1.989212    0.000000
    C    1.043402    0.182337    0.000000
    H    2.122017    0.222007    0.000000
    H   -2.125769   -0.067735    0.000000

