%NProcShared=4
#p b3lyp/6-311++G(3df,2p) freq symmetry=Loose

 b3lyp opt

2 4
    C    1.403379   -0.909189    0.000000
    H    2.129622   -0.096212    0.000000
    H    1.751294   -1.943359    0.000000
    C    0.000000   -0.663405    0.000000
    H   -0.712527   -1.518879    0.000000
    C   -0.622526    0.537108    0.000000
    C   -1.308918    1.628561    0.000000

