%NProcShared=4
#p b3lyp/6-311++G(3df,2p) freq symmetry=Loose

 b3lyp opt

0 4
    C   -1.917855   -0.000018    0.021333
    H   -2.471655    0.928899    0.015061
    H   -2.472532   -0.928384    0.014895
    C   -0.514957   -0.000721    0.006488
    C    0.719385    0.001215   -0.031766
    C    2.057308   -0.000505   -0.100135
    H    2.880904   -0.000343    0.594520

