%NProcShared=4
#p b3lyp/6-311++G(3df,2p) freq symmetry=Loose

 b3lyp opt

0 4
    C    1.814485   -0.232060    0.007829
    H    2.827550   -0.548857   -0.017210
    C    0.644671    0.144546    0.010408
    C   -0.652133    0.535368   -0.013818
    H   -0.895076    1.573449    0.197123
    C   -1.753370   -0.447512   -0.139657
    H   -2.254393   -1.026644    0.631511

