%NProcShared=4
#p b3lyp/6-311++G(3df,2p) freq symmetry=Loose

 b3lyp opt

0 4
    C    1.079235   -0.000204    0.000041
    C   -0.102103   -0.986875   -0.000279
    H    1.699816    0.000221    0.895404
    H    1.702676    0.000596   -0.893035
    C   -0.101170    0.986273   -0.000223
    C   -1.082859    0.000422   -0.000186
    H   -2.161114    0.001486    0.001506

