%NProcShared=4
#p b3lyp/6-311++G(3df,2p) freq symmetry=Loose

 b3lyp opt

2 2
    C    0.000000    0.000000   -1.705517
    H    0.000000    1.053707   -2.106050
    H    0.912537   -0.526854   -2.106050
    H   -0.912537   -0.526854   -2.106050
    C    0.000000    0.000000   -0.356540
    C    0.000000    0.000000    0.935069
    C    0.000000    0.000000    2.180013

