%NProcShared=1
#p b3lyp/6-311++G(3df,2p) freq symmetry=Loose

 b3lyp opt

2 4
C  0.002805000  0.010247997 -0.000004252
C -1.230886001  0.672772964 -0.000136586
C -1.198187999 -0.708012963  0.000149520
C  1.431326000  0.104048003 -0.000029495
H  1.951077000  1.065221014 -0.000230858
H  2.009291374 -0.769658283  0.584976858
H  2.009286626 -0.769900754 -0.584678250

