%NProcShared=4
#p b3lyp/6-311++G(3df,2p) freq symmetry=Loose

 b3lyp opt

0 4
    C    0.000000    0.000000   -1.764115
    H    0.000000    1.018799   -2.161965
    H    0.882306   -0.509400   -2.161965
    H   -0.882306   -0.509400   -2.161965
    C    0.000000    0.000000   -0.317028
    C    0.000000    0.000000    0.937564
    C    0.000000    0.000000    2.224562

