%NProcShared=4
#p b3lyp/6-311++G(3df,2p) freq symmetry=Loose

 b3lyp opt

0 2
    C   -1.548751   -0.366197   -0.010379
    H   -1.374631   -1.432032    0.038799
    H   -2.571951   -0.019780   -0.064685
    C   -0.508151    0.510868   -0.004036
    H   -0.715249    1.575707   -0.062251
    C    0.813010    0.101161    0.085443
    C    2.020864   -0.266482   -0.056338

