%NProcShared=1
#p b3lyp/6-311++G(3df,2p) freq symmetry=Loose

 b3lyp opt

2 4
C  1.734277646  0.003848062 -0.001147191
H  2.085769800  1.071066216 -0.044091337
H  2.192086302 -0.478623448  0.914952013
H  2.191177798 -0.550397652 -0.876166743
C  0.370988054 -0.009924744  0.000096213
C -0.933415887 -0.001387035  0.000415717
C -2.250021555  0.000435124  0.001010517

