%NProcShared=1
#p b3lyp/6-311++G(3df,2p) freq symmetry=Loose

 b3lyp opt

3 1
C  0.000068848  0.818690982  0.000269222
C -1.183848595  0.142384710  0.000019424
H -2.321052824  0.134053619 -0.000070308
C -0.000170716 -0.818789983 -0.000114347
H -0.000339950 -1.975556931 -0.000385312
C  1.183788352  0.142038283  0.000202099
H  2.320990095  0.133374405  0.000287849

