%NProcShared=4
#p b3lyp/6-311++G(3df,2p) freq symmetry=Loose

 b3lyp opt

2 2
    C    0.657917   -0.964689    0.000000
    H    1.682140   -1.356907   -0.000000
    C   -0.656378   -0.965673    0.000000
    H   -1.680344   -1.358531   -0.000000
    C   -0.000024    0.317098   -0.000000
    C   -0.001477    1.613638    0.000000
    H   -0.002850    2.712613   -0.000000

