%NProcShared=4
#p b3lyp/6-311++G(3df,2p) freq symmetry=Loose

 b3lyp opt

3 1
    C   -0.935194    1.553287    0.000000
    H   -1.615244    2.466127    0.000000
    C    0.000000    0.623186    0.000000
    H    0.971267    1.264611    0.000000
    C   -0.037082   -0.789482    0.000000
    H   -1.000851   -1.368715    0.000000
    C    1.246414   -1.780661    0.000000

