%NProcShared=1
#p b3lyp/6-311++G(3df,2p) freq symmetry=Loose

 b3lyp opt

3 1
C  1.017177619 -0.000772101  0.001571316
C -0.067926748 -0.877254371 -0.000445598
H  2.222810869 -0.540099509  0.003114171
H  2.223600339  0.536785359  0.003612159
C -0.066640474  0.877301709  0.000365767
C -1.230089911  0.000876927 -0.001767548
H -2.361535037  0.001707173 -0.003448585

