%NProcShared=1
#p b3lyp/6-311++G(3df,2p) freq symmetry=Loose

 b3lyp opt

2 4
C  1.064734000 -0.000000589  0.099162000
C -0.065385000 -0.899784746 -0.183546000
H  1.487219000  0.000002124  1.159855000
H  2.023308000 -0.000002802 -0.505742000
C -0.065384000  0.899783254 -0.183551000
C -1.149526000  0.000000642  0.099108000
H -2.217160000  0.000001956  0.358850000

