%NProcShared=1
#p b3lyp/6-311++G(3df,2p) freq symmetry=Loose

 b3lyp opt

3 1
C -0.181809948  0.000166695  0.190976998
H -0.287089617  0.000287787  1.368786988
C -0.881877114  1.356550192 -0.154902350
C -0.884193859 -1.355036856 -0.154830651
C  1.356937905 -0.001154746 -0.064488997
H  1.916639507  0.963511813 -0.134578517
H  1.914990291 -0.966780005 -0.134527477

