%NProcShared=4
#p b3lyp/6-311++G(3df,2p) freq symmetry=Loose

 b3lyp opt

0 4
    C    1.198181    0.654842   -0.105585
    C    1.196552   -0.655210   -0.105734
    C   -0.050679    0.000122    0.430573
    C   -1.440705    0.000350   -0.103618
    H   -1.462405    0.009551   -1.199598
    H   -1.974939   -0.884725    0.245435
    H   -1.982752    0.874547    0.260341

