%NProcShared=4
#p b3lyp/6-311++G(3df,2p) freq IOp(2/17=3) IOp(2/18=3)

 b3lyp opt

3 1
C  1.725070000  0.108304000  0.000077000
H  2.248714000  1.120813000  0.000104000
H  2.890000000 -0.474497000  0.000105635
H  2.114685001 -1.114798000  0.000075179
C  0.371862998 -0.010260001  0.000034917
C -0.885761000 -0.018428000 -0.000003062
C -2.419846999 -0.001386999 -0.000049091

