%NProcShared=4
#p b3lyp/6-311++G(3df,2p) freq symmetry=Loose

 b3lyp opt

2 4
    C    0.173462   -1.906611    0.000000
    H    1.181619   -2.365377    0.000000
    H   -0.690057   -2.600776    0.000000
    C    0.000000   -0.571980    0.000000
    C   -0.070055    0.736927    0.000000
    C   -0.090638    2.061488    0.000000
    H   -0.568178    3.047208    0.000000

