%NProcShared=4
#p b3lyp/6-311++G(3df,2p) freq symmetry=Loose

 b3lyp opt

1 3
    C    0.016955   -0.000247   -0.007030
    C   -1.199712    0.675772    0.000981
    C   -1.200325   -0.675583    0.000904
    C    1.466822   -0.000516   -0.005469
    H    1.849465    0.887745   -0.511005
    H    1.796988    0.027494    1.040477
    H    1.851102   -0.911792   -0.465785

