%NProcShared=4
#p b3lyp/6-311++G(3df,2p) freq IOp(2/17=3) IOp(2/18=3)

 b3lyp opt

3 3
C -0.000490308 -0.994049066 -0.359617992
C  1.079885911 -0.081415224  0.163193597
C  0.000388500  0.914324036 -0.055879005
H  0.000860510  1.824961790 -0.784646101
C -1.080071016 -0.080399841  0.163063412
H -2.097010922 -0.186874114  0.659914097
H  2.096665362 -0.188845537  0.660166858

