%NProcShared=4
#p b3lyp/6-311++G(3df,2p) freq IOp(2/17=3) IOp(2/18=3)

 b3lyp opt

1 1
C  1.166318980 -0.000063551  0.000134760
H  1.747800305  0.000018989 -0.917859169
H  1.747583683 -0.000218683  0.918265856
C -0.089575332  0.779806348  0.000087540
C -1.191440977  0.000083647 -0.000143384
H -2.269164939  0.000150930 -0.000270522
C -0.089672675 -0.779776630 -0.000114347

