%NProcShared=4
#p b3lyp/6-311++G(3df,2p) freq symmetry=Loose

 b3lyp opt

2 4
    C   -0.542381   -0.976671   -0.227405
    C   -1.628529   -0.174435    0.042186
    C    0.541437   -0.046481    0.271009
    H    0.802973   -0.173397    1.375454
    C    1.856598    0.127244   -0.159833
    H    2.825266   -0.362546   -0.341249
    C   -0.708876    0.851406   -0.019218
    H   -0.737732    1.849559   -0.474644

