%NProcShared=4
#p b3lyp/6-311++G(3df,2p) freq symmetry=Loose

 b3lyp opt

0 4
    C   -1.060592   -0.470890    0.039757
    H   -1.764292   -0.728844   -0.755514
    H   -1.551538   -0.719608    0.985099
    C    0.273496   -1.187072   -0.060441
    C    1.318287   -0.322597   -0.023148
    C   -0.576816    0.960933   -0.018007
    H   -1.197553    1.809340   -0.278424
    C    0.797856    0.959478    0.069978

