%NProcShared=4
#p b3lyp/6-311++G(3df,2p) freq symmetry=Loose

 b3lyp opt

0 4
    C    0.045018   -0.404037   -0.000055
    H    0.092720   -1.483539    0.000016
    C   -1.239955    0.205895   -0.000340
    C   -2.498418   -0.153371   -0.000015
    H   -1.339128    1.309626   -0.000849
    C    1.227950    0.338013    0.000170
    H    1.157415    1.428314    0.000517
    C    2.480144   -0.195619    0.000427

