%NProcShared=4
#p b3lyp/6-311++G(3df,2p) freq symmetry=Loose

 b3lyp opt

1 3
    C   -1.343342    0.786413    0.112736
    C   -1.535944   -0.455578    0.356062
    C   -0.330701   -0.155609   -0.527544
    H   -0.271235   -0.260151   -1.606603
    C    1.094921   -0.615688    0.120026
    H    1.260258   -1.658803    0.345210
    C    1.624849    0.505077    0.134208
    H    1.949440    1.528346    0.090299

