%NProcShared=4
#p b3lyp/6-311++G(3df,2p) freq symmetry=Loose

 b3lyp opt

3 3
    C    2.324133   -0.398332   -0.476889
    C   -0.097179    0.548952   -0.069024
    H   -0.108495    1.602336   -0.468310
    C   -1.344687   -0.001749   -0.037325
    C   -2.583091   -0.376512   -0.038144
    C    1.214600   -0.011646    0.369695
    H    1.203776   -0.950273    1.022627
    H    1.822066    0.783657    0.955799

