%NProcShared=4
#p b3lyp/6-311++G(3df,2p) freq symmetry=Loose

 b3lyp opt

2 4
    C    2.261838   -0.811915   -0.000000
    H    3.197797   -1.358876   -0.000000
    C    1.179664   -0.186018    0.000000
    C   -0.000006    0.616762    0.000000
    H    0.102520    1.699557    0.000000
    C   -1.247454    0.015203    0.000000
    H   -1.435207   -1.095603    0.000000
    C   -2.505394    0.491346   -0.000000

