%NProcShared=4
#p b3lyp/6-311++G(3df,2p) freq symmetry=Loose

 b3lyp opt

1 3
    C   -1.819274    0.015960   -0.105885
    H   -2.314034    0.945445   -0.352980
    H   -2.417571   -0.877787    0.016544
    C   -0.490944   -0.034228    0.080529
    C    0.732669    0.814567    0.079028
    H    0.948505    1.728534    0.628155
    C    1.602189   -0.183723   -0.379192
    C    0.605877   -0.911942    0.276900

