%NProcShared=1
#p b3lyp/6-311++G(3df,2p) freq symmetry=Loose

 b3lyp opt

2 4
C  0.311011000  0.067949000  0.000052000
C  0.855223000  1.337899000 -0.000092000
C  1.547380946 -0.600101938  0.000366709
H  2.506478003 -0.056142003  0.000418964
H  1.622793859 -1.695921838  0.000576495
C -1.022113000 -0.511263000 -0.000052585
C -2.190791932  0.264813922 -0.000376185
H -1.133532022 -1.603722975  0.000127274

