%NProcShared=1
#p b3lyp/6-311++G(3df,2p) freq symmetry=Loose

 b3lyp opt

2 4
C -1.920052000 -0.000008515 -0.104950000
H -2.463050344 -0.943385815 -0.171124543
H -2.463054656  0.943361187 -0.171197457
C -0.529595000  0.000000425  0.044138000
C  0.605804529 -0.887582672  0.207347301
C  1.615101000 -0.000004510 -0.210419000
H  2.663756000 -0.000014002 -0.518052999
C  0.605800471  0.887601324  0.207278698

