%NProcShared=1
#p b3lyp/6-311++G(3df,2p) freq symmetry=Loose

 b3lyp opt

0 4
C  2.043592213 -0.171633397 -0.002589066
H  1.876861254 -1.254648095  0.020738277
H  2.638653585  0.064583451 -0.889899519
H  2.643599745  0.101742028  0.870607999
C  0.777478296  0.554527221 -0.014358793
C -0.557000943  0.152199428 -0.002117735
C -1.504832442 -0.819223319  0.021048774
C -1.952150173  0.465674702 -0.004814493

