%NProcShared=4
#p b3lyp/6-311++G(3df,2p) freq symmetry=Loose

 b3lyp opt

1 1
    C    0.704696    0.484171    0.607035
    C   -1.224629   -0.125473    0.146908
    H   -2.230640   -0.127202    0.536987
    C   -0.131359   -0.914437   -0.014479
    H    0.743028    0.755030    1.654504
    C    1.166103   -0.472648   -0.351467
    C   -0.246157    0.736776   -0.502168
    H   -0.124315    1.121834   -1.506459

