%NProcShared=4
#p b3lyp/6-311++G(3df,2p) freq symmetry=Loose

 b3lyp opt

1 1
    C   -1.319664   -0.366540    0.000002
    H   -1.858343   -0.626857   -0.909304
    H   -1.858325   -0.626848    0.909321
    C    0.124316   -0.766277   -0.000003
    C    1.366249   -0.381176    0.000000
    H    2.380783   -0.738261    0.000000
    C   -0.595889    0.931670   -0.000005
    C    0.647634    0.914318    0.000004

