%NProcShared=4
#p b3lyp/6-311++G(3df,2p) freq symmetry=Loose

 b3lyp opt

0 2
    C    0.000000    0.243379    0.000000
    C   -1.202822   -0.427076    0.000000
    H   -2.113674    0.178416    0.000000
    C    1.400362    0.214625    0.000000
    H    2.308185   -0.363147    0.000000
    C   -1.184433   -1.813076    0.000000
    C    0.804809    1.400738    0.000000
    H    0.897994    2.473194    0.000000

