%NProcShared=4
#p b3lyp/6-311++G(3df,2p) freq symmetry=Loose

 b3lyp opt

0 2
    C   -1.923763   -0.134778   -0.103772
    H   -2.778315    0.462493   -0.358051
    C   -0.645658   -0.061430    0.039243
    C    0.486919    0.874498    0.062101
    H    0.582439    1.706141    0.758869
    C    1.464136   -0.073484   -0.276638
    H    2.518483   -0.070891   -0.487658
    C    0.564597   -0.954430    0.293540

