%NProcShared=4
#p b3lyp/6-311++G(3df,2p) freq symmetry=Loose

 b3lyp opt

2 4
    C    2.317054   -0.241199    0.000000
    H    3.279303   -0.763371    0.000000
    C    0.941163   -0.540326    0.000000
    H    0.619346   -1.587160    0.000000
    C    0.000000    0.519813    0.000000
    H    0.327933    1.562116    0.000000
    C   -1.363004    0.266491    0.000000
    C   -2.599643    0.126624    0.000000

