%NProcShared=4
#p b3lyp/6-311++G(3df,2p) freq symmetry=Loose

 b3lyp opt

2 4
    C    0.563242   -0.207308    0.800069
    C   -0.748803   -0.496063    0.001872
    H   -1.092950   -1.538960    0.006343
    C   -1.670233    0.567925   -0.002533
    H   -2.752822    0.718891   -0.002169
    C    0.563716   -0.214196   -0.798261
    C    1.511533    0.359514   -0.001328
    H    2.529050    0.760844   -0.003090

