%NProcShared=4
#p b3lyp/6-311++G(3df,2p) freq symmetry=Loose

 b3lyp opt

3 3
    C   -0.105591    0.477269    0.000246
    H   -0.197639    1.594060    0.000177
    C    1.196384    0.051177    0.000154
    C   -1.311000   -0.316695    0.000293
    C   -2.571442    0.012528    0.000038
    H   -1.379598   -1.462583    0.000551
    C    2.461571   -0.180387    0.000051
    H    3.557980   -0.394188   -0.000074

