%NProcShared=4
#p b3lyp/6-311++G(3df,2p) freq symmetry=Loose

 b3lyp opt

0 2
    C   -1.260672   -1.791312    0.000000
    H   -0.388192   -2.427281    0.000000
    H   -2.231857   -2.260664    0.000000
    C   -1.157998   -0.433318    0.000000
    H   -2.062436    0.171758    0.000000
    C    0.000000    0.292719    0.000000
    C    1.052564    0.987932    0.000000
    C    2.146519    1.696677    0.000000

