%NProcShared=4
#p b3lyp/6-311++G(3df,2p) freq symmetry=Loose

 b3lyp opt

3 1
    C    0.000000    0.000000   -1.062406
    C    0.000000    0.000000    0.288189
    C    0.000000    0.000000    1.529331
    C    0.000000    0.000000    3.039438
    C    0.000000    0.000000   -2.376545
    H    0.000000    1.073872   -2.836016
    H    0.930001   -0.536936   -2.836016
    H   -0.930001   -0.536936   -2.836016

