%NProcShared=4
#p b3lyp/6-311++G(3df,2p) freq symmetry=Loose

 b3lyp opt

0 2
    C    0.000000    0.502575    0.000000
    C   -0.801745   -0.687899    0.000000
    H   -1.876999   -0.551696    0.000000
    C    1.245211    1.110403    0.000000
    C   -0.249785   -1.901226    0.000000
    C    0.124671    1.871517    0.000000
    H    0.824955   -2.025457    0.000000
    H   -0.858068   -2.795064    0.000000

