%NProcShared=4
#p b3lyp/6-311++G(3df,2p) freq IOp(2/17=3) IOp(2/18=3)

 b3lyp opt

0 4
C  0.426698365  1.085596049 -0.000075758
C  1.293247980 -0.000345513  0.000024759
H  2.369270031 -0.000629817  0.000008117
C  0.426124639 -1.085829008  0.000152090
C -0.965366374  0.685742309 -0.000012234
H -1.829351240  1.329963146 -0.000066443
C -0.965728610 -0.685239707  0.000131623
H -1.830053782 -1.329003895  0.000212563

