%NProcShared=1
#p b3lyp/6-311++G(3df,2p) freq symmetry=Loose

 b3lyp opt

1 3
C -0.344838013  1.282830966 -0.000331237
C -1.001849997  0.080790009  0.000034861
C  0.530304999  0.314526997 -0.000171865
C -1.953874984 -0.882867959  0.000369403
C  1.743929996 -0.463923010 -0.000092968
H  1.780831857 -1.103476459 -0.887207576
H  2.597107011  0.218827029 -0.000347234
H  1.781003119 -1.103029604  0.887336484

