%NProcShared=4
#p b3lyp/6-311++G(3df,2p) freq symmetry=Loose

 b3lyp opt

1 3
    C    0.000000    0.000000   -0.973894
    C    0.000000    0.000000    0.280238
    C    0.000000    0.000000    1.567906
    C    0.000000    0.000000    2.896008
    C    0.000000    0.000000   -2.386917
    H    0.000000    1.030539   -2.766681
    H    0.892473   -0.515270   -2.766681
    H   -0.892473   -0.515270   -2.766681

