%NProcShared=4
#p b3lyp/6-311++G(3df,2p) freq symmetry=Loose

 b3lyp opt

3 3
    C   -0.383437    0.033914    0.062139
    C   -1.466752   -0.860679    0.043952
    C    1.014413    0.160997    0.355560
    H    1.308495    0.520285    1.420804
    C    2.169452   -0.068044   -0.307620
    H    3.200938   -0.170287   -0.770011
    C   -1.693246    0.455964   -0.185759
    H   -2.347371    1.318728   -0.465186

