%NProcShared=4
#p b3lyp/6-311++G(3df,2p) freq symmetry=Loose

 b3lyp opt

1 3
    C   -1.642760    0.033759   -0.092103
    C   -0.678816    0.885718   -0.281348
    C   -0.523258   -0.801258    0.070139
    H   -0.422678   -1.803262   -0.347056
    C    0.625512    0.088620    0.503913
    H    0.621495    0.436054    1.533329
    C    1.807445    0.081700   -0.217374
    H    2.272447   -0.364021   -1.085630

