%NProcShared=4
#p b3lyp/6-311++G(3df,2p) freq symmetry=Loose

 b3lyp opt

2 4
    C    2.144914   -0.522827   -0.000730
    C   -0.323618    0.011086    0.000430
    C   -1.302360   -0.921362    0.000214
    C    1.100117    0.473628    0.000288
    H    1.351485    1.141670    0.866045
    H    1.351012    1.143702   -0.863944
    C   -1.669020    0.380932   -0.000275
    H   -2.402700    1.185884   -0.001663

