%NProcShared=4
#p b3lyp/6-311++G(3df,2p) freq symmetry=Loose

 b3lyp opt

3 3
    C    0.286972   -0.000210   -0.000558
    C   -1.070325   -0.000318   -0.000411
    C   -2.383561    0.000074    0.000265
    H   -3.511137    0.000279    0.000975
    C    1.543984    0.682855    0.000189
    H    1.990549    1.707398    0.000544
    C    1.544411   -0.682557    0.000158
    H    1.991701   -1.706741    0.000619

