%NProcShared=4
#p b3lyp/6-311++G(3df,2p) freq symmetry=Loose

 b3lyp opt

0 2
    C    1.868987    0.000003   -0.079559
    H    2.418022    0.928292   -0.141909
    H    2.418059   -0.928261   -0.141930
    C    0.555657   -0.000014    0.042949
    C   -0.597164    0.900251    0.159983
    C   -1.593018    0.000006   -0.185188
    H   -2.659824    0.000008   -0.305171
    C   -0.597172   -0.900252    0.159983

