%NProcShared=4
#p b3lyp/6-311++G(3df,2p) freq symmetry=Loose

 b3lyp opt

1 3
    C    0.000000    0.233285    0.000000
    C   -1.055817   -0.722161    0.000000
    H   -2.086761   -0.371258    0.000000
    C    1.335477    0.556505    0.000000
    H    2.369553    0.247827    0.000000
    C   -0.780749   -2.023866    0.000000
    C    0.422006    1.543810    0.000000
    H    0.191708    2.597993    0.000000

