%NProcShared=4
#p b3lyp/6-311++G(3df,2p) freq symmetry=Loose

 b3lyp opt

1 1
    H    1.457586   -0.497346    1.264086
    C    0.312806   -0.954860   -0.399692
    C   -0.765591   -0.078025   -0.097673
    C   -2.052804    0.019346    0.243306
    C    1.429852   -0.041333    0.268033
    H    2.422652    0.097985   -0.151411
    C    0.359410    0.847604   -0.065369
    H    0.417723    1.642965   -0.804296

