%NProcShared=1
#p b3lyp/6-311++G(3df,2p) freq symmetry=Loose

 b3lyp opt

0 4
C  1.063904976 -0.622702965 -0.000280329
C -0.288746007 -0.747432990 -0.000118107
C -1.367304980 -0.037466028  0.000174046
C -2.554217955  0.526778935  0.000451893
C  2.009982974  0.492704038 -0.000186992
H  2.659813400  0.431944622 -0.878303780
H  1.503083952  1.463040069  0.000078369
H  2.660056567  0.431591426  0.877725278

