%NProcShared=4
#p b3lyp/6-311++G(3df,2p) freq symmetry=Loose

 b3lyp opt

3 1
    C   -2.148777   -0.000002   -0.229162
    C   -0.581583   -0.000009    0.024803
    C    0.431814   -1.002623    0.230039
    H    0.507447   -2.015204    0.685701
    C    1.333054    0.000008   -0.312131
    H    2.187265    0.000009   -1.032945
    C    0.431804    1.002624    0.230040
    H    0.507408    2.015204    0.685709

