%NProcShared=4
#p b3lyp/6-311++G(3df,2p) freq symmetry=Loose

 b3lyp opt

3 3
    C   -2.301386   -0.353664   -0.000008
    H   -2.813334   -0.607883   -0.964064
    H   -2.813762   -0.606859    0.964091
    C   -1.074349    0.414303   -0.000124
    H   -1.331460    1.533153   -0.000903
    C    0.239946    0.135078    0.000162
    C    1.508440   -0.045438    0.000530
    C    2.787039   -0.202835   -0.000409

