%NProcShared=4
#p b3lyp/6-311++G(3df,2p) freq symmetry=Loose

 b3lyp opt

0 2
    C    0.000000    0.356635    0.000000
    C   -0.883506   -0.792273    0.000000
    H   -1.955600   -0.617734    0.000000
    C    1.333787    0.842413    0.000000
    C   -0.391380   -2.010361    0.000000
    C    0.200292    1.670782    0.000000
    H    0.588531   -2.461995    0.000000
    H   -0.188092    2.676550    0.000000

