%NProcShared=4
#p b3lyp/6-311++G(3df,2p) freq symmetry=Loose

 b3lyp opt

0 4
    C   -2.418932    0.220644    0.000291
    H   -2.492784    1.308864   -0.000550
    H   -3.352628   -0.328915    0.001359
    C   -1.246292   -0.391111    0.000051
    C    0.093735   -0.175479   -0.000748
    C    1.331608    0.006693   -0.000346
    H    3.556242   -0.303989    0.001342
    C    2.621409    0.226593    0.000394

