%NProcShared=4
#p b3lyp/6-311++G(3df,2p) freq symmetry=Loose

 b3lyp opt

2 4
    C    0.762810    0.922551   -0.203688
    C    0.754137   -0.923014   -0.201620
    C    1.690497   -0.003415    0.319144
    C   -0.360155    0.004239   -0.050149
    C   -1.769832    0.010921    0.110265
    H   -2.136357   -0.871333    0.658530
    H   -2.171528    0.974450    0.436128
    H   -2.156862   -0.170816   -0.938367

