%NProcShared=4
#p b3lyp/6-311++G(3df,2p) freq symmetry=Loose

 b3lyp opt

2 2
    C   -2.369151   -0.186891   -0.001198
    H   -3.424598   -0.451433   -0.008486
    C   -1.161108    0.120462    0.014616
    C    0.152986    0.528196    0.004131
    H    0.360668    1.602948   -0.038649
    C    1.204758   -0.415437   -0.036692
    H    1.080291   -1.510805    0.040353
    C    2.502957    0.013883    0.020094

