%NProcShared=4
#p b3lyp/6-311++G(3df,2p) freq symmetry=Loose

 b3lyp opt

3 1
    C   -2.309572   -0.365165   -0.000003
    H   -2.833928   -0.635768   -0.963527
    H   -2.835005   -0.635795    0.962880
    C   -1.121828    0.423520    0.000000
    H   -1.410075    1.533723   -0.000505
    C    0.227382    0.135507    0.000308
    C    1.458423   -0.037917   -0.000004
    C    2.925431   -0.199638   -0.000110

