%NProcShared=4
#p b3lyp/6-311++G(3df,2p) freq symmetry=Loose

 b3lyp opt

0 2
    H    1.503521   -0.446676    1.334760
    C    0.348686   -0.803469   -0.502540
    C   -0.796260   -0.090103   -0.028097
    C   -2.085329   -0.015206    0.232953
    C    1.448456   -0.088362    0.311442
    H    2.417049    0.042872   -0.157776
    C    0.361632    0.800843   -0.073343
    H    0.416326    1.581583   -0.819484

