%NProcShared=4
#p b3lyp/6-311++G(3df,2p) freq symmetry=Loose

 b3lyp opt

0 2
    C   -0.391335    0.044722   -0.006013
    C    0.916863    0.004774    0.004154
    C   -1.681654    0.788557   -0.087189
    C    2.221676   -0.028940   -0.000004
    C   -1.640876   -0.550039    0.069504
    H    2.808021    0.543324    0.713380
    H    2.778273   -0.626854   -0.715981
    H   -2.122087   -1.512227    0.126700

