%NProcShared=4
#p b3lyp/6-311++G(3df,2p) freq symmetry=Loose

 b3lyp opt

1 3
    C   -0.237965    0.216517    0.000045
    C   -1.430030    0.843116   -0.000675
    H   -1.903174   -1.099764    0.921242
    C    1.083690    0.051968    0.000220
    C    2.294262   -0.124204    0.000341
    H    3.355453   -0.269251   -0.000299
    C   -1.634220   -0.575539   -0.000098
    H   -1.903726   -1.099836   -0.921148

