%NProcShared=4
#p b3lyp/6-311++G(3df,2p) freq symmetry=Loose

 b3lyp opt

0 2
    C    1.141714    0.088023    0.014254
    C   -1.313230   -0.036707   -0.148380
    C   -2.347991   -0.692491    0.075228
    H   -0.241080    1.358584    0.966307
    C    2.193798   -0.483279   -0.001122
    H    3.124095   -0.995350   -0.013013
    C   -0.132108    0.802425    0.027397
    H   -0.136114    1.568940   -0.757557

