%NProcShared=4
#p b3lyp/6-311++G(3df,2p) freq symmetry=Loose

 b3lyp opt

2 2
    C    0.582105    0.799775   -0.001649
    C   -0.653260    0.047926    0.290695
    H   -1.057096    0.125490    1.366080
    C   -1.916516    0.063036   -0.302497
    H   -2.845266   -0.499361   -0.493036
    C    0.546130   -0.800942    0.091532
    C    1.640413   -0.035484   -0.162566
    H    2.709127   -0.071983   -0.366134

