%NProcShared=4
#p b3lyp/6-311++G(3df,2p) freq symmetry=Loose

 b3lyp opt

1 3
    C    1.092495    0.544786   -0.168598
    C   -0.072973    0.457879    0.643342
    C   -1.369260    0.134663   -0.044690
    C   -0.166070   -0.600041   -0.579446
    H    1.698866    1.200276   -0.775838
    H   -1.805156    0.900204   -0.676540
    H   -2.072088   -0.475451    0.516827
    C    0.878870   -0.808124    0.305318

