%NProcShared=4
#p b3lyp/6-311++G(3df,2p) freq symmetry=Loose

 b3lyp opt

3 3
    C    2.287170   -0.564374    0.000000
    H    3.391514   -0.747071    0.000000
    C    0.995194   -0.547548    0.000000
    H    0.767906   -1.673305    0.000000
    C    0.000000    0.481287    0.000000
    H    0.324997    1.555221    0.000000
    C   -1.370601    0.361221    0.000000
    C   -2.659165    0.413606    0.000000

