%NProcShared=1
#p b3lyp/6-311++G(3df,2p) freq symmetry=Loose

 b3lyp opt

2 4
C -0.431250994  0.051888994  0.000404399
C  0.912491910 -0.010326909  0.001935042
C -1.603273700  0.796367699 -0.001683498
C  2.289670397 -0.048598398  0.003475965
C -1.733530622 -0.532357377 -0.000375970
H  2.847300137 -0.068210078  0.950537465
H  2.849360681 -0.070274742 -0.942324199
H -2.278967715 -1.477751284  0.000061475

