%NProcShared=4
#p b3lyp/6-311++G(3df,2p) freq symmetry=Loose

 b3lyp opt

0 4
    C    0.507571    0.889580   -0.076736
    C   -0.618593   -0.000570    0.452313
    H   -0.662383   -0.001795    1.538514
    C   -1.901904    0.000032   -0.195644
    H   -2.225654    0.002460   -1.225128
    C    0.507869   -0.889493   -0.078189
    C    1.553119    0.000230   -0.097500
    H    2.599664    0.000659   -0.338847

