%NProcShared=4
#p b3lyp/6-311++G(3df,2p) freq symmetry=Loose

 b3lyp opt

0 2
    C   -1.851170   -0.031119   -0.079379
    H   -2.399708    0.878845   -0.272873
    H   -2.402710   -0.957071   -0.012224
    C   -0.538065   -0.012087    0.044459
    C    0.676322    0.793846    0.022457
    H    0.874411    1.698201    0.593602
    C    1.715666   -0.202012   -0.294576
    C    0.651914   -0.818624    0.255622

