%NProcShared=4
#p b3lyp/6-311++G(3df,2p) freq symmetry=Loose

 b3lyp opt

3 3
    C    2.092715   -1.054722    0.000000
    H    3.138382   -0.610615    0.000000
    H    2.080358   -2.186738    0.000000
    C    1.017106   -0.305348    0.000000
    C    0.000000    0.581462    0.000000
    H    0.375602    1.663412    0.000000
    C   -1.380125    0.469850    0.000000
    C   -2.662087    0.497748    0.000000

