%NProcShared=4
#p b3lyp/6-311++G(3df,2p) freq symmetry=Loose

 b3lyp opt

3 3
    C   -0.414295   -0.144618   -0.032964
    C   -1.252247   -1.339921    0.044233
    C   -1.207137    1.084140   -0.004390
    H   -2.299647    1.050681    0.178502
    H   -0.760496    2.076319   -0.202879
    C    1.010460   -0.320369   -0.059897
    C    2.120814    0.425834    0.087763
    H    1.514567   -1.357395   -0.184098

