%NProcShared=4
#p b3lyp/6-311++G(3df,2p) freq symmetry=Loose

 b3lyp opt

0 4
    C    0.000000    0.469176    0.000000
    C   -0.842250   -0.597902    0.000000
    H   -1.900955   -0.353089    0.000000
    C    1.382299    1.063734    0.000000
    C   -0.463368   -1.931102    0.000000
    C    0.345609    1.877324    0.000000
    H    0.576393   -2.223909    0.000000
    H   -1.209176   -2.710377    0.000000

