%NProcShared=4
#p b3lyp/6-311++G(3df,2p) freq symmetry=Loose

 b3lyp opt

0 2
    C   -0.583738    0.163405   -0.000532
    C    0.819896   -0.160198   -0.000509
    C    2.011203   -0.339460   -0.000331
    H    3.058155   -0.520817    0.000670
    C   -0.410909    1.503371    0.000033
    C   -1.654171   -0.724184   -0.000311
    H   -2.665553   -0.349493    0.000723
    H   -1.483635   -1.788461   -0.000257

