%NProcShared=4
#p b3lyp/6-311++G(3df,2p) freq symmetry=Loose

 b3lyp opt

3 3
    C    0.635734   -1.081674    0.018946
    H    0.694881   -1.929566   -0.787014
    H    0.893527   -1.780013    0.935579
    C    1.167150    0.205352   -0.135798
    C   -0.521885   -0.048389    0.127272
    C   -1.983760   -0.150616   -0.075886
    C    0.396535    1.293306    0.027240
    H    0.248949    2.401709    0.080787

