%NProcShared=4
#p b3lyp/6-311++G(3df,2p) freq symmetry=Loose

 b3lyp opt

1 3
    C   -1.960180   -0.079880   -0.043794
    H   -2.941077    0.341328   -0.144711
    C   -0.680868   -0.077602   -0.024060
    C    0.552560    0.846333   -0.007092
    H    0.622240    1.784959    0.545008
    C    1.550467   -0.122072   -0.164599
    H    2.625897   -0.160266   -0.153420
    C    0.486844   -0.894449    0.198399

