%NProcShared=1
#p b3lyp/6-311++G(3df,2p) freq symmetry=Loose

 b3lyp opt

0 4
C -0.875254998  0.425762014  0.000117213
C  0.432349994  0.424971949 -0.708465314
C  1.389986005 -0.457981960 -0.000095161
C  0.432295994  0.424492949  0.708798686
H -1.426617013  1.361285884  0.000412389
H  2.421373000 -0.134916999  0.000053324
H  1.247155996 -1.541601036 -0.000466839
C -1.753028993 -0.764705940 -0.000318580

