%NProcShared=4
#p b3lyp/6-311++G(3df,2p) freq symmetry=Loose

 b3lyp opt

3 3
    C    0.201138    0.001370    0.076001
    C   -1.180827    0.000959    0.330508
    H   -1.582201    0.002586    1.422554
    C    1.455966    0.664893   -0.075108
    H    1.854684    1.709859   -0.119609
    C   -2.285270   -0.001049   -0.455118
    C    1.455246   -0.666146   -0.074075
    H    1.849996   -1.712610   -0.116202

