%NProcShared=4
#p b3lyp/6-311++G(3df,2p) freq symmetry=Loose

 b3lyp opt

0 2
    C    2.164512   -0.403041   -0.000802
    H    2.684673   -0.607854   -0.930409
    H    2.651149   -0.702200    0.921353
    C    1.007217    0.164018    0.007535
    C   -0.193052    0.752743    0.013412
    H   -0.234715    1.838404    0.075320
    C   -1.370159    0.024602   -0.063596
    C   -2.458626   -0.626461    0.032354

