%NProcShared=4
#p b3lyp/6-311++G(3df,2p) freq symmetry=Loose

 b3lyp opt

3 1
    C    0.321199    0.877293    0.351611
    C    1.389482   -0.000170   -0.000196
    H    2.514734   -0.000157    0.001798
    C    0.321807   -0.876312   -0.352059
    C   -0.958558    0.751091   -0.155674
    H   -1.604924    1.383758   -0.829634
    C   -0.958133   -0.751625    0.156164
    H   -1.604595   -1.385262    0.828759

