%NProcShared=1
#p b3lyp/6-311++G(3df,2p) freq symmetry=Loose

 b3lyp opt

0 4
C -1.720666785 -0.174977848  0.640936758
C -1.720168785 -0.176944848 -0.641683242
C  0.835447879 -0.286185521  0.000788156
C  2.134975664 -0.057833674  0.000942525
H  2.533809808  0.957662759 -0.000459965
H  2.863911421 -0.859491712  0.002454954
C -0.379791920  0.426903682 -0.000777261
H -0.296487867  1.516060475 -0.002415226

