%NProcShared=1
#p b3lyp/6-311++G(3df,2p) freq symmetry=Loose

 b3lyp opt

3 3
C  2.475900418 -0.358383153  0.000000000
H  3.537448836 -0.703206038  0.000000000
C  1.254130049  0.031832829  0.000000000
C -0.000058155  0.598960993 -0.000000000
H -0.000156991  1.737952976 -0.000000000
C -1.254147915  0.031615174 -0.000000000
C -2.475850543 -0.358812841 -0.000000000
H -3.537339102 -0.703819952 -0.000000000

