%NProcShared=4
#p b3lyp/6-311++G(3df,2p) freq symmetry=Loose

 b3lyp opt

1 3
    C    1.864234    0.000000   -0.121849
    H    2.400761    0.936627   -0.208636
    H    2.400752   -0.936623   -0.208745
    C    0.491325   -0.000005    0.081249
    C   -0.590194    0.936717    0.218743
    C   -1.550239    0.000003   -0.222438
    H   -2.551102   -0.000014   -0.629429
    C   -0.590194   -0.936713    0.218763

