%NProcShared=4
#p b3lyp/6-311++G(3df,2p) freq symmetry=Loose

 b3lyp opt

1 1
    C    0.720418    0.776691   -0.004331
    C    0.722092   -0.777072   -0.003985
    C    1.966664    0.001017    0.009653
    C   -0.429333   -0.001520   -0.015747
    C   -1.864193   -0.001345   -0.009833
    H   -2.167458    0.043792    1.053579
    H   -2.260715    0.896345   -0.486222
    H   -2.265716   -0.926767   -0.421903

