%NProcShared=4
#p b3lyp/6-311++G(3df,2p) freq IOp(2/17=3) IOp(2/18=3)

 b3lyp opt

3 1
C  0.395408000  0.120299000 -0.000050000
C  0.456784000  1.598237000 -0.000029000
C  1.711820974 -0.594745995 -0.000203199
H  2.669938937 -0.038564989 -0.000294652
H  1.751402984 -1.700967997 -0.000228005
C -0.845064982 -0.534224003  0.000069626
C -2.305169986 -0.022711002  0.000234303
H -0.904010992 -1.661593001  0.000054896

