%NProcShared=4
#p b3lyp/6-311++G(3df,2p) freq symmetry=Loose

 b3lyp opt

2 2
    C    2.212432   -0.702886    0.000000
    H    3.250467   -1.049683    0.000000
    C    0.969401   -0.491262    0.000000
    H    0.668991   -1.594645    0.000000
    C    0.000000    0.591654    0.000000
    H    0.400300    1.609294    0.000000
    C   -1.334426    0.401539    0.000000
    C   -2.567367    0.373460    0.000000

