%NProcShared=4
#p b3lyp/6-311++G(3df,2p) freq symmetry=Loose

 b3lyp opt

0 2
    C    2.119879   -0.267375   -0.633273
    C   -0.048896    0.617476    0.061712
    H    0.146107    1.655272   -0.195204
    C   -1.266241    0.101703   -0.055976
    C   -2.436826   -0.399855   -0.120436
    C    1.152122   -0.201211    0.438288
    H    0.912217   -1.145146    0.939862
    H    1.821453    0.385450    1.113455

