%NProcShared=1
#p b3lyp/6-311++G(3df,2p) freq symmetry=Loose

 b3lyp opt

0 4
C -1.205822979 -0.287875988  0.000252599
H -1.829606979 -0.481637989 -0.874720680
H -1.829276979 -0.481455989  0.875501320
C  0.056205037 -1.129459979  0.000102160
C  1.209021987 -0.354191007 -0.000195818
H  2.220284898 -0.731210056 -0.000347285
C -0.593202944  1.073575031 -0.000004482
C  0.773566904  0.980334947 -0.000252488

