%NProcShared=4
#p b3lyp/6-311++G(3df,2p) freq symmetry=Loose

 b3lyp opt

2 2
    C    2.171719   -0.834749    0.000000
    H    3.072801   -1.440754    0.000000
    C    1.134434   -0.147054   -0.000000
    C   -1.329080    0.187793    0.000000
    C   -2.518434   -0.193490   -0.000000
    C   -0.000018    0.737806   -0.000000
    H    0.091183    1.473167    0.844347
    H    0.091182    1.473167   -0.844347

