%NProcShared=1
#p b3lyp/6-311++G(3df,2p) freq symmetry=Loose

 b3lyp opt

1 3
C -0.152494968 -0.319651022 -0.000004694
C -1.413980954 -0.777179031  0.000325285
H -1.591360554  1.223537061 -0.916915847
C -1.382246758  0.665196838  0.000647162
H -1.590726797  1.223113506  0.918611934
C  1.226321862 -0.432653908 -0.000506837
H  1.731504726 -1.405572817 -0.000905767
C  1.964164786  0.690774143 -0.000502358

