%NProcShared=4
#p b3lyp/6-311++G(3df,2p) freq symmetry=Loose

 b3lyp opt

3 3
    H    2.618067   -0.168011    0.202495
    C    0.424919   -0.980992   -0.259201
    C    1.517795   -0.108191    0.024164
    C   -0.667274   -0.087648    0.270158
    H   -0.977923   -0.260756    1.391714
    C    0.484859    0.906780   -0.024320
    H    0.455295    1.951363   -0.419431
    C   -2.109539    0.016285   -0.206598

