%NProcShared=4
#p b3lyp/6-311++G(3df,2p) freq symmetry=Loose

 b3lyp opt

3 1
    C    0.615144   -0.135256    0.093064
    C    1.893251   -0.330130   -0.053400
    H    2.654169   -0.138485    0.775298
    H    2.393691   -0.667652   -1.019199
    C   -0.814229    0.025532    0.277500
    H   -1.119776    0.153168    1.397508
    C   -1.919965   -0.885290   -0.252923
    C   -0.427759    1.433047   -0.256103

