%NProcShared=4
#p b3lyp/6-311++G(3df,2p) freq symmetry=Loose

 b3lyp opt

2 2
    C   -2.003692   -1.052570    0.000000
    H   -3.049048   -0.674899    0.000000
    H   -1.887672   -2.156143    0.000000
    C   -1.002811   -0.251833    0.000000
    C    0.000000    0.684744    0.000000
    H   -0.386584    1.728616    0.000000
    C    1.334572    0.452741    0.000000
    C    2.559148    0.350655    0.000000

