%NProcShared=4
#p b3lyp/6-311++G(3df,2p) freq symmetry=Loose

 b3lyp opt

0 4
    C    2.295832   -0.340393    0.000000
    H    3.180140   -0.955182    0.000000
    C    0.970690   -0.533603   -0.000000
    H    0.603771   -1.562336   -0.000000
    C    0.000176    0.493050   -0.000000
    H    0.328746    1.525498   -0.000000
    C   -1.358632    0.243826    0.000000
    C   -2.593467    0.302330    0.000000

