%NProcShared=4
#p b3lyp/6-311++G(3df,2p) freq symmetry=Loose

 b3lyp opt

1 3
    H    2.123522   -0.069856    0.305475
    C    1.058118   -0.141382    0.163078
    C   -0.021047   -1.126899    0.220276
    C   -0.117941    0.950428    0.298102
    H   -0.108168    1.980123    0.624245
    C   -1.066338   -0.176350    0.125212
    H   -2.106335   -0.216329   -0.158777
    C    0.162371    0.211879   -0.935157

