%NProcShared=4
#p b3lyp/6-311++G(3df,2p) freq symmetry=Loose

 b3lyp opt

1 1
    C   -0.373027    1.386322    0.000054
    C   -0.973282    0.092907   -0.000045
    C    0.435827    0.252749    0.000111
    C   -1.799878   -0.980284    0.000004
    C    1.690634   -0.457973    0.000231
    H    2.259340   -0.116700   -0.877038
    H    2.266486   -0.106769    0.868711
    H    1.592534   -1.538853    0.006195

