%NProcShared=4
#p b3lyp/6-311++G(3df,2p) freq symmetry=Loose

 b3lyp opt

2 2
    C   -1.555960   -0.118698    0.203323
    C   -0.495049   -0.885592   -0.217000
    H   -2.635682   -0.175792    0.323957
    C    0.703199   -0.084678   -0.067605
    C    1.947504   -0.018544    0.106736
    H    3.025107    0.065897    0.247487
    C   -0.573581    0.815936   -0.054145
    H   -0.547459    1.863917   -0.390444

