%NProcShared=4
#p b3lyp/6-311++G(3df,2p) freq symmetry=Loose

 b3lyp opt

2 2
    H   -1.930542   -0.607197    0.924444
    C   -0.587553    0.907254   -0.000323
    C    1.421792   -0.381188   -0.000108
    H    2.423712   -0.817982    0.000760
    C    0.089291   -0.663407   -0.000506
    C    0.704680    0.828809    0.000324
    C   -1.388329   -0.352747    0.000216
    H   -1.932462   -0.607142   -0.922824

