%NProcShared=1
#p b3lyp/6-311++G(3df,2p) freq symmetry=Loose

 b3lyp opt

2 4
C -2.417832981 -0.396613720 -0.000220873
H -3.431059718 -0.790064024  0.000001921
C -1.235456032  0.059934623 -0.000480564
C  0.000050802  0.643879949 -0.000764158
H  0.000238595  1.758833824 -0.000891806
C  1.235360856  0.059518410 -0.000913996
C  2.417583943 -0.397428254 -0.001069104
H  3.430678083 -0.791219896 -0.001201769

