%NProcShared=4
#p b3lyp/6-311++G(3df,2p) freq symmetry=Loose

 b3lyp opt

0 4
    C    0.000000    0.351377    0.000000
    C   -0.443272   -0.924278    0.000000
    C    0.911598    1.406938    0.000000
    C   -0.020593   -2.203353    0.000000
    C   -0.320174    1.849158    0.000000
    H    1.037393   -2.457166    0.000000
    H   -0.720776   -3.028457    0.000000
    H   -1.081973    2.606570    0.000000

