%NProcShared=1
#p b3lyp/6-311++G(3df,2p) freq symmetry=Loose

 b3lyp opt

0 4
C  0.740182802  1.041071707 -0.000000000
C  1.188117844 -0.238497535  0.000000000
H  2.203097391 -0.598274633  0.000000000
C -0.000043044 -1.050496998  0.000000000
H -0.000089523 -2.132541007  0.000000000
C -1.188134170 -0.238395465  0.000000000
H -2.203144621 -0.598085366  0.000000000
C -0.740089203  1.041135291 -0.000000000

