%NProcShared=4
#p b3lyp/6-311++G(3df,2p) freq symmetry=Loose

 b3lyp opt

0 4
    C    2.146851   -0.897535    0.000000
    H    2.896602   -0.106065    0.000000
    H    2.516909   -1.914903    0.000000
    C    0.846723   -0.618541    0.000000
    C    0.000000    0.481936    0.000000
    H    0.441514    1.481595    0.000000
    C   -1.375655    0.407835    0.000000
    C   -2.593757    0.716200    0.000000

