%NProcShared=1
#p b3lyp/6-311++G(3df,2p) freq symmetry=Loose

 b3lyp opt

3 1
C  1.891675633 -0.485320596 -0.000713463
H  2.428787565 -0.678917708 -0.964498024
H  2.429959565 -0.677012708  0.962797976
C  0.567855629  0.040504397 -0.000428182
C -0.824364926 -0.045976880  0.000503916
C -2.133486646 -0.860411800  0.002105014
C -0.259384546  1.193095112 -0.001064389
H -0.312515843  2.304588629 -0.002130715

