%NProcShared=4
#p b3lyp/6-311++G(3df,2p) freq symmetry=Loose

 b3lyp opt

0 2
    C    2.262450   -0.349206    0.000000
    H    3.170795   -0.929493    0.000000
    C    0.959193   -0.552232    0.000000
    H    0.560013   -1.567400    0.000000
    C    0.000000    0.527708    0.000000
    H    0.410028    1.535215    0.000000
    C   -1.324925    0.348820    0.000000
    C   -2.586857    0.185190    0.000000

