%NProcShared=4
#p b3lyp/6-311++G(3df,2p) freq IOp(2/17=3) IOp(2/18=3)

 b3lyp opt

1 4
C -1.346222364 -0.092052850 -0.000049053
H -2.152169924  0.632578042  0.000023842
H -1.585739430 -1.153989237 -0.000187076
C -0.000023037  0.357689001  0.000036735
C  1.346226628 -0.091902154  0.000010089
H  1.585862572 -1.153811722 -0.000117409
H  2.152093063  0.632818953  0.000118390

