%NProcShared=4
#p b3lyp/6-311++G(3df,2p) freq symmetry=Loose

 b3lyp opt

3 4
    C    1.374772   -0.000172    0.000099
    H    2.349454   -0.001345    0.831242
    H    2.349726    0.001081   -0.830162
    C   -0.052963   -0.000396   -0.000031
    C   -1.422195   -0.000385    0.000025
    H   -2.048523    0.967633    0.001499
    H   -2.048264   -0.968643   -0.001399

