%NProcShared=4
#p b3lyp/6-311++G(3df,2p) freq symmetry=Loose

 b3lyp opt

1 2
    C   -1.141389   -0.205231   -0.000050
    H   -1.195374   -1.288370    0.000457
    H   -2.074112    0.348596   -0.001260
    C    0.077210    0.443494    0.000417
    H    2.283733   -0.183821   -0.001083
    H    0.135955    1.532202   -0.000239
    C    1.205812   -0.306365   -0.000013

