%NProcShared=1
#p b3lyp/6-311++G(3df,2p) freq symmetry=Loose

 b3lyp opt

1 4
C  1.057021980 -0.183667947  0.000170035
H  1.092692978 -1.266915941  0.000521400
H  1.617647682  0.244209510 -0.854856187
H  1.617446311  0.244757510  0.855053848
C -0.260784001  0.403127002 -0.000173218
C -1.454543986 -0.338321039 -0.000076181
H -0.377954903  1.491120735 -0.000535702

