%NProcShared=4
#p b3lyp/6-311++G(3df,2p) freq symmetry=Loose

 b3lyp opt

1 2
    C    1.061418   -0.174761   -0.000407
    H    1.085326   -1.259404   -0.005920
    H    1.613220    0.247298   -0.859733
    H    1.606463    0.236207    0.869044
    C   -0.282542    0.409323   -0.000229
    C   -1.425106   -0.355113    0.000056
    H   -0.427630    1.499203    0.000090

