%NProcShared=1
#p b3lyp/6-311++G(3df,2p) freq symmetry=Loose

 b3lyp opt

3 2
C  1.417578398  0.000116216 -0.000098324
H  2.021619385 -0.986914151 -0.000092926
H  2.021545415  0.987191849 -0.000090427
C  0.000016900  0.000063100 -0.000113925
C -1.417544598  0.000009984 -0.000129526
H -2.021585585  0.987040351 -0.000134924
H -2.021511615 -0.987065649 -0.000137423

