%NProcShared=1
#p b3lyp/6-311++G(3df,2p) freq symmetry=Loose

 b3lyp opt

1 4
C -0.037089872  1.083621904 -0.000439855
C -0.716322919 -0.390701060 -0.000225818
C  0.742051773 -0.356226831  0.000504442
H -1.249344512 -0.540706876  0.935768963
H -1.248390106 -0.541418409 -0.936649218
H  1.282471574 -0.468664567  0.937297676
H  1.283426251 -0.469376302 -0.935651656

