%NProcShared=4
#p b3lyp/6-311++G(3df,2p) freq IOp(2/17=3) IOp(2/18=3)

 b3lyp opt

3 2
C -1.259647991 -0.163571002 -0.000158385
H -1.511597933 -1.258388013 -0.000163240
H -2.021826042  0.667845008 -0.000255687
C  0.250330016  0.316624997 -0.000008034
H  0.543960432  1.030410093 -0.947740170
H  0.543759675  1.030447887  0.947757814
C  1.416934965 -0.398105993  0.000129775

