%NProcShared=1
#p b3lyp/6-311++G(3df,2p) freq symmetry=Loose

 b3lyp opt

1 4
C  1.173035838  0.104365262  0.000393073
H  1.194162843  1.208224253 -0.000305902
H  1.729071230 -0.282998711  0.873437673
H  1.729765620 -0.284117047 -0.871711579
C -0.139902125 -0.411541799  0.000201266
C -1.404157723  0.224070553 -0.000709094
H -2.426857572 -0.142472689 -0.000881132

