%NProcShared=4
#p b3lyp/6-311++G(3df,2p) freq symmetry=Loose

 b3lyp opt

2 1
    C    1.146499    0.134008    0.000205
    H    1.752561   -0.873944   -0.478555
    H    1.764000    1.040386    0.000589
    H    1.750238   -0.875686    0.478608
    C   -0.172803    0.012835    0.000135
    C   -1.430553   -0.019197   -0.000083
    H   -2.525790   -0.059091   -0.000797

