%NProcShared=4
#p b3lyp/6-311++G(3df,2p) freq symmetry=Loose

 b3lyp opt

1 4
    C   -1.210867   -0.177479    0.001473
    H   -1.420977   -1.129435    0.484427
    H   -2.009441    0.301213   -0.562165
    C    0.075542    0.402684    0.049006
    H    0.152255    1.473356    0.284791
    H    2.330662   -0.123202    0.139356
    C    1.292337   -0.310854   -0.107162

