%NProcShared=4
#p b3lyp/6-311++G(3df,2p) freq symmetry=Loose

 b3lyp opt

1 4
    C    0.000282    0.711740    0.000128
    H   -0.183802    1.311835    0.903373
    H    0.185432    1.312689   -0.902564
    C   -0.910815   -0.401707   -0.164941
    C    0.909905   -0.402363    0.164470
    H   -1.503186   -1.035307    0.487871
    H    1.505327   -1.035234   -0.486625

