%NProcShared=4
#p b3lyp/6-311++G(3df,2p) freq symmetry=Loose

 b3lyp opt

0 3
    C    1.088975   -0.142529   -0.000256
    H    1.623903    0.218258   -0.881773
    H    1.623686    0.221565    0.880109
    H    1.113067   -1.229643    0.001846
    C   -0.326208    0.381855   -0.000959
    C   -1.415024   -0.352601    0.000420
    H   -0.447482    1.469314   -0.000594

