%NProcShared=4
#p b3lyp/6-311++G(3df,2p) freq symmetry=Loose

 b3lyp opt

1 2
    C    0.824364    0.000458   -0.000108
    H    1.459692   -0.379875    0.816806
    H    1.460711    0.380670   -0.816386
    C   -0.492320    0.656745    0.076959
    C   -0.491583   -0.657101   -0.076507
    H   -0.982616    1.617156    0.003755
    H   -0.980552   -1.618563   -0.006238

