%NProcShared=4
#p b3lyp/6-311++G(3df,2p) freq symmetry=Loose

 b3lyp opt

2 1
    C   -1.185879   -0.136165   -0.003747
    H   -1.704337   -0.345809    0.942182
    H   -1.706984   -0.287029   -0.959779
    C    0.195598    0.339354    0.009390
    H    0.515579    0.966335   -0.905416
    H    0.516337    0.909116    0.960961
    C    1.386849   -0.410291   -0.011967

