%NProcShared=4
#p b3lyp/6-311++G(3df,2p) freq symmetry=Loose

 b3lyp opt

3 4
    C    1.103157   -0.160321    0.000667
    H    1.470165   -0.523952   -1.058502
    H    2.167810    0.547125   -0.004149
    H    1.470511   -0.516639    1.061540
    C   -0.305843    0.289475   -0.000431
    C   -1.559691   -0.290266    0.000197
    H   -0.534224    1.460131   -0.001485

