%NProcShared=4
#p b3lyp/6-311++G(3df,2p) freq symmetry=Loose

 b3lyp opt

2 3
    C    1.504216    0.118247    0.000447
    H    1.884887    0.439355   -1.011884
    H    2.253333   -0.793235   -0.005127
    H    1.884276    0.428787    1.015957
    C    0.062474    0.038786   -0.000003
    C   -0.998609   -0.857705   -0.000559
    C   -1.247739    0.468754    0.000119
    H   -1.944543    1.316601    0.001028

