%NProcShared=1
#p b3lyp/6-311++G(3df,2p) freq symmetry=Loose

 b3lyp opt

2 1
C  0.816820965 -0.001028363 -0.000039016
C -0.468883921 -0.000568824 -0.000227273
C -1.822338921 -0.000085070 -0.000425451
H -2.219453980 -0.630822417 -0.841338971
H -2.219640701 -0.412705604  0.966301558
H -2.218960152  1.043698515 -0.126413335
C  2.058511880 -0.001472171  0.000142797
H  3.152989798 -0.001863361  0.000303055

