%NProcShared=4
#p b3lyp/6-311++G(3df,2p) freq symmetry=Loose

 b3lyp opt

3 2
    C   -0.232216   -0.003200    0.230250
    H   -0.436271   -0.077406    1.378799
    C    1.272667    0.201085   -0.144261
    H    1.937409    0.554016    0.802373
    H    2.152656   -0.532026    0.289661
    H    1.550546    0.481605   -1.174499
    C   -1.202060    1.137572   -0.130271
    C   -0.705780   -1.406489   -0.171773

