%NProcShared=4
#p b3lyp/6-311++G(3df,2p) freq symmetry=Loose

 b3lyp opt

3 4
    C   -0.594485    0.054834   -0.106374
    C    1.999122   -0.323598    0.110984
    H    2.738147   -1.066464   -0.312735
    C   -1.937446   -0.172902    0.038094
    H   -2.463040   -0.231576    1.042268
    H   -2.608276   -0.325952   -0.867471
    C    0.762898    0.448874   -0.015429
    H    0.955125    1.575177   -0.031237

