%NProcShared=4
#p b3lyp/6-311++G(3df,2p) freq symmetry=Loose

 b3lyp opt

3 2
    C   -1.654928   -0.263484    0.000186
    H   -2.782405    0.254493   -0.000658
    H   -1.956727   -0.654791    1.046030
    H   -1.957030   -0.657069   -1.044724
    C   -0.341325    0.401940   -0.000241
    H   -0.415141    1.552930   -0.000077
    C    0.952689    0.006720   -0.000296
    C    2.228781   -0.227770    0.000256

