%NProcShared=4
#p b3lyp/6-311++G(3df,2p) freq symmetry=Loose

 b3lyp opt

1 4
    C   -0.478462    0.395554    0.000223
    C    0.635389   -0.421463    0.000288
    C    1.991124   -0.110267   -0.001096
    H    2.486805    0.863100   -0.001438
    H   -0.338360    1.478308    0.000634
    C   -1.751477   -0.136927   -0.000616
    H   -1.907094   -1.208437   -0.000443
    H   -2.621278    0.507545   -0.001249

