%NProcShared=4
#p b3lyp/6-311++G(3df,2p) freq symmetry=Loose

 b3lyp opt

1 2
    C    1.637080   -0.259809   -0.125128
    H    2.370562   -1.039941   -0.191445
    C    0.655258    0.516808   -0.010695
    H    0.597504    1.590296   -0.140473
    C   -0.819490   -0.112791    0.466200
    H   -1.151706    0.465588    1.339057
    H   -0.724911   -1.178845    0.749185
    C   -1.654757   -0.117058   -0.623097

