%NProcShared=4
#p b3lyp/6-311++G(3df,2p) freq symmetry=Loose

 b3lyp opt

0 3
    C   -0.951544   -0.713765   -0.357482
    C    0.206785   -0.201926    0.446878
    H    0.244843   -0.475403    1.502727
    C    1.485886    0.156735   -0.173059
    H    2.171534   -0.614489   -0.500165
    H    1.779896    1.189678   -0.304834
    C   -1.166936    0.499561   -0.039716
    H   -1.641419    1.456586    0.042544

