%NProcShared=1
#p b3lyp/6-311++G(3df,2p) freq symmetry=Loose

 b3lyp opt

2 1
C  1.592450996 -0.000093561  0.000044980
H  2.154122975  0.000159843 -0.948366130
H  2.153361022 -0.000411654  0.948811115
C -1.020275406  0.662152217  0.000204981
H -1.455507678  1.665703710  0.000630274
C  0.215462997 -0.000014277 -0.000172015
C -1.020351587 -0.662038689 -0.000193943
H -1.455699325 -1.665540172 -0.000373293

