%NProcShared=4
#p b3lyp/6-311++G(3df,2p) freq IOp(2/17=3) IOp(2/18=3)

 b3lyp opt

1 4
C  1.764096981  0.165838006 -0.000189808
H  2.320635095  0.286416547 -0.933038659
H  2.320820841  0.286361472  0.932555320
C  0.523817001 -0.102875000 -0.000074253
C -0.851704988 -0.423241003  0.000053242
H -1.003062031 -1.114559842  0.858691931
H -1.003233011 -1.114509145 -0.858596107
C -1.875402985  0.636325996  0.000186445

