%NProcShared=1
#p b3lyp/6-311++G(3df,2p) freq symmetry=Loose

 b3lyp opt

1 2
C  1.018957998 -0.000086694  0.135353000
H  1.391962000 -0.000110652  1.152628000
H  1.806499003 -0.000165891 -0.618685000
C -1.120254997  0.000109820  0.296004000
C -0.172686339 -0.903573226 -0.129636090
H -0.259874895 -1.765804744 -0.783156590
C -0.172521665  0.903611768 -0.129653909
H -0.259553084  1.765846274 -0.783191412

