%NProcShared=1
#p b3lyp/6-311++G(3df,2p) freq symmetry=Loose

 b3lyp opt

1 2
C -1.676690000 -0.130556000 -0.000081000
H -2.557710000  0.498708000 -0.000321000
H -1.819802044 -1.204005831  0.000208869
C -0.410908969  0.433653879 -0.000146891
H -0.305892975  1.512221905 -0.000440958
C  1.995727979  0.165262080  0.000102965
C  0.752176991 -0.360041965  0.000159588
H  0.721570002 -1.456832006  0.000464156

