%NProcShared=4
#p b3lyp/6-311++G(3df,2p) freq symmetry=Loose

 b3lyp opt

1 2
    C    0.000000    0.181447    0.000000
    C    0.182963   -1.216122    0.000000
    H    1.168116   -1.703642    0.000000
    H   -0.660685   -1.907676    0.000000
    C    1.354857    0.133749    0.000000
    C   -1.111502    1.042962    0.000000
    H   -2.116504    0.648418    0.000000
    H   -0.948838    2.110688    0.000000

