%NProcShared=4
#p b3lyp/6-311++G(3df,2p) freq symmetry=Loose

 b3lyp opt

3 2
    C   -0.559492    0.405679   -0.000284
    C    2.022166   -0.179131    0.001215
    C    0.747510    0.048948    0.000540
    H    3.129096   -0.385474    0.001283
    H   -0.752022    1.547637   -0.001557
    C   -1.821480   -0.293965   -0.000703
    H   -2.352918   -0.525068   -0.971526
    H   -2.354630   -0.524368    0.969271

