%NProcShared=1
#p b3lyp/6-311++G(3df,2p) freq symmetry=Loose

 b3lyp opt

2 1
C  0.000150851  0.854299143  0.000464734
C  1.170314991 -0.000135828  0.000107141
C  0.000066174 -0.854454876 -0.000071006
C -1.170172002 -0.000019901  0.000286592
H  1.858332292 -0.000449315  0.891235309
H  1.858195662  0.000109510 -0.891126519
H -1.858040735 -0.000265280  0.891650948
H -1.858177386  0.000293626 -0.890972272

