%NProcShared=4
#p b3lyp/6-311++G(3df,2p) freq symmetry=Loose

 b3lyp opt

1 2
    C    1.128230    0.127853   -0.143876
    H    2.205279    0.162598   -0.145828
    C    0.117543   -0.814495    0.000564
    H    0.168133   -1.784206    0.496346
    C   -1.133547    0.069585   -0.099838
    H   -1.914397   -0.076752    0.639616
    H   -1.495070    0.224864   -1.111404
    C    0.060449    0.862639    0.263361

