%NProcShared=4
#p b3lyp/6-311++G(3df,2p) freq symmetry=Loose

 b3lyp opt

3 4
    C    1.041447   -0.058412   -0.000076
    C   -1.005460   -0.078976   -0.000115
    C    0.091369   -1.187561   -0.000868
    H   -1.623245   -0.141578   -1.025442
    H   -1.622190   -0.142060    1.025831
    H    2.227805   -0.100905    0.000677
    C    0.035746    1.030111   -0.000528
    H    0.038925    2.155533   -0.000055

