%NProcShared=4
#p b3lyp/6-311++G(3df,2p) freq IOp(2/17=3) IOp(2/18=3)

 b3lyp opt

3 2
C  0.710191002  0.368033994 -0.000218602
H  1.283509006  1.387732979 -0.000287577
C -1.749551998 -0.438354007 -0.000210675
H -2.748230996 -0.967207012 -0.000191198
C  1.749733998 -0.438259993 -0.000129374
H  2.748741995 -0.966440984 -0.000063534
C -0.710238002  0.368382007 -0.000251635
H -1.283033005  1.388213016 -0.000347252

