%NProcShared=4
#p b3lyp/6-311++G(3df,2p) freq symmetry=Loose

 b3lyp opt

0 3
    C    1.770821   -0.063370   -0.158134
    H    2.220793   -1.020200   -0.364671
    C    0.606223    0.450554    0.124010
    H    0.491178    1.521429    0.276648
    C   -0.672530   -0.358315    0.198170
    H   -1.129436   -0.245510    1.224184
    H   -0.506460   -1.436299    0.065889
    C   -1.883860    0.167894   -0.364388

