%NProcShared=4
#p b3lyp/6-311++G(3df,2p) freq symmetry=Loose

 b3lyp opt

1 4
    C   -1.844091   -0.018598   -0.000213
    C   -0.517180   -0.316486    0.000589
    C    0.686173    0.364220    0.000189
    H   -2.194487    1.014766    0.000080
    H   -2.597247   -0.800755   -0.001201
    H    0.680828    1.464077   -0.000512
    C    1.872151   -0.298074   -0.000197
    H    2.928588   -0.064460   -0.000576

