%NProcShared=1
#p b3lyp/6-311++G(3df,2p) freq symmetry=Loose

 b3lyp opt

3 2
C -1.206692001  0.000052155  0.000013192
C  0.000009681 -0.816622078 -0.000117419
H -1.963305835  0.000218876 -0.898725299
H -1.963295161 -0.000052825  0.898760679
H  1.964606336 -0.000212978  0.898017863
C  0.000076321  0.816627916  0.000129456
C  1.206172998 -0.000046292 -0.000001152
H  1.964595669  0.000058505 -0.898029184

