%NProcShared=4
#p b3lyp/6-311++G(3df,2p) freq symmetry=Loose

 b3lyp opt

0 1
    C    1.574841   -0.331258    0.000029
    H    2.191252   -0.100051   -0.874300
    H    1.322994   -1.387530    0.002221
    H    2.192418   -0.096088    0.872134
    C    0.367252    0.533810   -0.000139
    H    0.548406    1.608933   -0.000604
    C   -0.889186    0.101906    0.000510
    C   -2.095419   -0.308669   -0.000308

