%NProcShared=1
#p b3lyp/6-311++G(3df,2p) freq symmetry=Loose

 b3lyp opt

2 1
C -0.532491946  0.348255848  0.001365616
C  0.760358141  0.050518603  0.000099866
C  1.977295241 -0.157123856 -0.000969909
H  3.045031757 -0.356937490 -0.001938061
H -0.830727150  1.451856423  0.003391483
C -1.794963437 -0.273924590  0.001072132
H -2.338232486 -0.443041524  0.949867546
H -2.339358098 -0.439862475 -0.947639418

