%NProcShared=4
#p b3lyp/6-311++G(3df,2p) freq symmetry=Loose

 b3lyp opt

2 1
    C    1.687311   -0.156147    0.001151
    H    2.203619    0.860058   -0.027136
    H    2.025745   -0.684406   -0.923540
    H    2.036058   -0.647421    0.941127
    C    0.364552    0.121684    0.000541
    C   -1.959871   -0.530561   -0.000196
    C   -0.918084    0.400808    0.000034
    H   -1.308866    1.457064    0.000374

