%NProcShared=4
#p b3lyp/6-311++G(3df,2p) freq symmetry=Loose

 b3lyp opt

1 2
    C    0.437523    0.128115    0.532349
    H    0.479572    0.302045    1.600167
    C    1.503861   -0.045112   -0.233089
    H    1.785593   -0.243103   -1.258340
    C   -0.949442   -0.651562   -0.061784
    C   -0.957589    0.578856   -0.223066
    H   -1.288778    1.577902   -0.443765
    H   -1.182106   -1.697481    0.016874

