%NProcShared=4
#p b3lyp/6-311++G(3df,2p) freq symmetry=Loose

 b3lyp opt

2 3
    C    1.580003   -0.327621   -0.000087
    H    1.470485   -1.407637   -0.000714
    H    2.242309    0.066757    0.823601
    H    2.242746    0.068076   -0.822692
    C    0.403104    0.471772    0.000088
    H    0.496611    1.581772   -0.000288
    C   -0.914006    0.058175    0.000040
    C   -2.144460   -0.253821   -0.000027

