%NProcShared=1
#p b3lyp/6-311++G(3df,2p) freq symmetry=Loose

 b3lyp opt

0 1
C -0.000043925  0.631419005  0.000000000
C  0.000043925 -0.631419005 -0.000000000
C  0.000135171 -1.943071999 -0.000000000
H -0.924117995 -2.508557299  0.000000000
H  0.924467005 -2.508428701 -0.000000000
C -0.000135171  1.943071999  0.000000000
H  0.924117995  2.508557299 -0.000000000
H -0.924467005  2.508428701  0.000000000

