%NProcShared=4
#p b3lyp/6-311++G(3df,2p) freq symmetry=Loose

 b3lyp opt

2 3
    C   -0.728221    0.664630   -0.000428
    H   -1.420883    1.522326   -0.000577
    C    1.005740   -0.651324   -0.000074
    H    1.561091   -1.600985   -0.001535
    C   -1.004558   -0.652931    0.000114
    C    0.727357    0.665742    0.000014
    H   -1.558261   -1.603281    0.000567
    H    1.418766    1.524521    0.000547

