%NProcShared=1
#p b3lyp/6-311++G(3df,2p) freq symmetry=Loose

 b3lyp opt

1 2
C  0.000000000  0.750171000  0.686594731
H  0.000000000  1.512185500  1.452761231
C -0.000000000 -0.750171000  0.686594731
H -0.000000000 -1.512185500  1.452761231
C  0.000000000  0.750171000 -0.686604269
C -0.000000000 -0.750171000 -0.686604269
H -0.000000000 -1.512185500 -1.452770769
H  0.000000000  1.512185500 -1.452770769

