%NProcShared=1
#p b3lyp/6-311++G(3df,2p) freq symmetry=Loose

 b3lyp opt

0 1
C  0.635063000 -0.488676000  0.001003000
H  1.496925000  1.440742000 -0.000019000
H  0.833151011 -1.555648725  0.001554151
C -0.734321000 -0.112745006  0.000835811
C -1.902594000  0.171699995  0.000712054
H -2.932045022  0.430857457  0.000598573
C  1.655359000  0.371171012  0.000534327
H  2.676771010  0.017868248  0.000696969

