%NProcShared=4
#p b3lyp/6-311++G(3df,2p) freq symmetry=Loose

 b3lyp opt

0 3
    C   -1.118743   -0.000032   -0.229797
    H   -1.735749    0.000433   -1.119604
    C   -0.000007   -0.807769    0.236833
    H    0.000441   -1.490698    1.075818
    C   -0.000128    0.807666    0.236998
    H   -0.000350    1.489683    1.077344
    C    1.118721    0.000032   -0.229777
    H    1.736600    0.001204   -1.119096

