%NProcShared=4
#p b3lyp/6-311++G(3df,2p) freq IOp(2/17=3) IOp(2/18=3)

 b3lyp opt

0 3
C -0.019677612 -1.015347569 -0.000140391
H -0.040550048 -2.092767477 -0.000186353
C  0.019662997  1.015385953 -0.000053763
H  0.040535433  2.092805862 -0.000007801
C  1.015359454 -0.019651111 -0.000118543
C -1.015374070  0.019689496 -0.000075611
H  2.092779363 -0.040523546 -0.000141321
H -2.092793979  0.040561931 -0.000052833

