%NProcShared=4
#p b3lyp/6-311++G(3df,2p) freq symmetry=Loose

 b3lyp opt

3 4
    C    0.091318   -0.104336    0.000441
    H   -2.042587   -1.297525   -0.001543
    C    1.535581   -0.115197   -0.000162
    H    2.179915    0.756709    0.597055
    H    2.018634   -1.131533   -0.003373
    H    2.178101    0.762185   -0.590478
    C   -1.168407    0.893782    0.003158
    C   -1.180342   -0.523011    0.000147

