%NProcShared=1
#p b3lyp/6-311++G(3df,2p) freq symmetry=Loose

 b3lyp opt

2 3
C -0.000095732  0.118126916 -0.000000000
C  1.253230254 -0.551600940  0.000000000
H  2.196276504  0.000279067  0.000000000
H  1.302726652 -1.645005017  0.000000000
C -0.001346792  1.536554765 -0.000000000
C -1.252238363 -0.553810775 -0.000000000
H -1.299805911 -1.647300463 -0.000000000
H -2.196256666 -0.003595167 -0.000000000

