%NProcShared=4
#p b3lyp/6-311++G(3df,2p) freq symmetry=Loose

 b3lyp opt

1 4
    C   -0.947554   -0.772506   -0.301457
    C    0.162229   -0.168134    0.403009
    H    0.187170   -0.373538    1.500939
    C    1.501119    0.141181   -0.174153
    H    2.140174   -0.693632   -0.427351
    H    1.828859    1.169117   -0.228559
    C   -1.134697    0.534340   -0.052003
    H   -1.642784    1.488766   -0.097406

