%NProcShared=4
#p b3lyp/6-311++G(3df,2p) freq symmetry=Loose

 b3lyp opt

1 2
    C    1.521414    0.079280   -0.000050
    H    1.819256    1.125632   -0.003182
    H    1.929355   -0.432936   -0.877721
    H    1.928049   -0.426816    0.881688
    C    0.081214   -0.084565   -0.000105
    C   -1.072643   -0.806787    0.000038
    C   -1.187402    0.524642   -0.000032
    H   -1.732161    1.458699    0.000108

