%NProcShared=1
#p b3lyp/6-311++G(3df,2p) freq symmetry=Loose

 b3lyp opt

0 1
C  0.000238488  1.587133007  0.000000000
H -0.925577411  2.143639845  0.000000000
H  0.926223634  2.143358187  0.000000000
C  0.000036740  0.260710994  0.000000000
C -0.656889996 -1.016130613 -0.000000000
H -1.567688225 -1.589407598 -0.000000000
C  0.656575031 -1.016330390 -0.000000000
H  1.567198828 -1.589884412  0.000000000

