%NProcShared=4
#p b3lyp/6-311++G(3df,2p) freq symmetry=Loose

 b3lyp opt

2 3
    C    1.782025   -0.242493   -0.124488
    H    2.275379   -1.212996   -0.026211
    C    0.624936    0.503846   -0.036301
    H    0.657636    1.577625   -0.256836
    C   -0.739906   -0.049021    0.376282
    H   -1.270939    0.664223    1.093995
    H   -0.751918   -1.064535    0.871854
    C   -1.818748   -0.206385   -0.495959

