%NProcShared=4
#p b3lyp/6-311++G(3df,2p) freq symmetry=Loose

 b3lyp opt

1 4
    C    1.879726    0.004127    0.000538
    H    2.302078    0.481152   -0.891918
    H    2.197585   -1.057647   -0.041132
    H    2.306199    0.421690    0.919095
    C    0.464521    0.056390    0.002006
    C   -0.817779    0.000968    0.000556
    C   -2.149416   -0.110976    0.000156
    H   -3.068178    0.451745   -0.005579

