%NProcShared=4
#p b3lyp/6-311++G(3df,2p) freq symmetry=Loose

 b3lyp opt

1 4
    C    0.970796    0.320996    0.430161
    H    1.767421    0.637612    1.092879
    C    0.898660   -0.561337   -0.694050
    C   -0.074518   -1.021321    0.279945
    H   -1.785352    0.162934    0.999238
    C   -0.182562    0.959056   -0.206991
    H   -0.244788    1.928871   -0.690514
    C   -1.244641   -0.092776    0.076521
    H   -1.943691   -0.357126   -0.715116

