%NProcShared=1
#p b3lyp/6-311++G(3df,2p) freq symmetry=Loose

 b3lyp opt

1 4
C -1.558819999  0.326513000  0.000027849
C  1.808787001 -0.064351000 -0.000036161
H  2.442751003  0.814096999 -0.000045319
H  2.276102984 -1.040594997 -0.000047844
C  0.448698003  0.076246000 -0.000010361
C -0.437631004  1.162578001  0.000009473
C -0.762761001 -0.947813000  0.000009128
H -0.854229085 -1.546271254  0.906487517
H -0.854262906 -1.546265747 -0.906469484

