%NProcShared=4
#p b3lyp/6-311++G(3df,2p) freq symmetry=Loose

 b3lyp opt

2 3
    C    0.521585    0.960478   -0.148671
    H    0.631629    1.949829   -0.601004
    C   -0.594667    0.031408   -0.030314
    C   -1.957705    0.114012    0.135070
    H   -2.848646   -0.500715    0.255668
    C    1.439678   -0.038024    0.263766
    H    2.465728   -0.071072    0.627294
    C    0.464239   -0.971087   -0.162233
    H    0.512507   -1.958768   -0.627671

