%NProcShared=4
#p b3lyp/6-311++G(3df,2p) freq symmetry=Loose

 b3lyp opt

2 3
    C   -1.000056   -0.497632   -0.000663
    H   -1.205761   -1.201766    0.850267
    H   -1.206245   -1.197769   -0.854877
    C   -2.047621    0.444704    0.000986
    H   -3.145832    0.462719    0.001548
    C    0.414738   -0.017362   -0.000260
    C    1.371681    0.937929   -0.000656
    C    1.767736   -0.354494    0.000799
    H    2.518968   -1.142049    0.001824

