%NProcShared=4
#p b3lyp/6-311++G(3df,2p) freq symmetry=Loose

 b3lyp opt

0 1
    C    0.706555   -0.980461   -0.415921
    C    1.417007   -0.196709    0.603538
    C   -0.303601    0.003800   -0.199812
    C    0.789182    0.861187   -0.126720
    H    1.118586    1.760742   -0.624931
    C   -1.741780    0.012139    0.128190
    H   -2.223640    0.920045   -0.233870
    H   -2.234548   -0.863386   -0.291735
    H   -1.864573   -0.017130    1.214889

