%NProcShared=4
#p b3lyp/6-311++G(3df,2p) freq symmetry=Loose

 b3lyp opt

1 4
    C   -0.430946    1.084186    0.000000
    H   -1.502593    1.291002    0.000000
    C    0.463027    2.096661    0.000000
    H    0.458378    3.178162    0.000000
    C    0.000000   -0.234882    0.000000
    C    0.894974   -1.229413    0.000000
    C   -0.455868   -1.745210    0.000000
    H   -0.891454   -2.148609   -0.917551
    H   -0.891454   -2.148609    0.917551

