%NProcShared=4
#p b3lyp/6-311++G(3df,2p) freq symmetry=Loose

 b3lyp opt

2 1
    C   -0.329618    0.660690    0.660581
    C    1.157678   -0.278133    0.079957
    H   -0.231452    1.082556    1.663540
    H    2.151988   -0.310291    0.527193
    C    0.000673   -1.017025    0.001770
    C   -1.156618   -0.279773   -0.079382
    H   -2.150416   -0.314778   -0.527959
    C    0.328108    0.658603   -0.662214
    H    0.228540    1.076347   -1.667047

