%NProcShared=4
#p b3lyp/6-311++G(3df,2p) freq symmetry=Loose

 b3lyp opt

3 2
    C   -1.541211    0.049128   -0.000248
    C   -2.802690    0.215917    0.000334
    C   -0.278803   -0.146188   -0.000313
    C    1.103758   -0.495945   -0.000027
    H    1.279851   -1.229255    0.861009
    H    1.280345   -1.228547   -0.861649
    C    2.208517    0.503925    0.000385
    H    3.236322    0.099627    0.000639
    H    2.062538    1.595380   -0.000555

