%NProcShared=4
#p b3lyp/6-311++G(3df,2p) freq symmetry=Loose

 b3lyp opt

0 3
    C    0.000000   -1.140444    0.000000
    H    0.109127   -2.215135    0.000000
    C   -0.784668    0.921604    0.000000
    C   -1.179204   -0.443771    0.000000
    H   -2.181837   -0.833877    0.000000
    C    1.126016   -0.182176    0.000000
    H    2.168932   -0.462027    0.000000
    C    0.626680    1.093085    0.000000
    H    1.170833    2.021252    0.000000

