%NProcShared=1
#p b3lyp/6-311++G(3df,2p) freq symmetry=Loose

 b3lyp opt

0 1
C  2.118007943 -0.453315081  0.000305602
H  1.730536944 -1.468954079 -0.000052888
H  2.747904580 -0.320459756  0.881438941
H  2.748249334 -0.319969367 -0.880507082
C -0.261857032  0.279875954  0.000044006
C -1.517400951 -0.008276930 -0.000281861
C -2.761601867 -0.299718811 -0.000606424
C  1.006182927  0.563460896  0.000371046
H  1.273324910  1.617224872  0.000716603

