%NProcShared=4
#p b3lyp/6-311++G(3df,2p) freq symmetry=Loose

 b3lyp opt

3 2
    C    2.403289    0.169107    0.001213
    C    1.108861   -0.057655    0.000860
    C   -0.175111   -0.455689    0.000109
    H    3.156123   -0.676738    0.001487
    H    2.865676    1.198214    0.001354
    H   -0.236445   -1.577400    0.000551
    C   -2.652032   -0.034445   -0.000420
    C   -1.400500    0.311557   -0.000110
    H   -1.489256    1.453262   -0.000100

