%NProcShared=1
#p b3lyp/6-311++G(3df,2p) freq symmetry=Loose

 b3lyp opt

3 4
C  0.000694598  2.351718980 -0.000000000
C -1.284211943 -1.066201499 -0.000000000
H -1.281218286 -2.170514029 -0.000000000
H -2.257678378 -0.552262431 -0.000000000
C  0.000309245  1.037697037 -0.000000000
C -0.000097221 -0.348322971  0.000000000
C  1.283596227 -1.066954538  0.000000000
H  2.257363932 -0.553586519  0.000000000
H  1.279954866 -2.171265123  0.000000000

