%NProcShared=4
#p b3lyp/6-311++G(3df,2p) freq symmetry=Loose

 b3lyp opt

3 4
    C    1.475925   -0.629189    0.125904
    C    0.224525   -0.145321   -0.103450
    H    2.036747   -1.612705    0.255631
    C   -1.229473   -0.021433   -0.429071
    H   -1.557605   -0.927454   -1.051693
    H   -1.466603    0.807472   -1.171162
    C   -2.191655    0.091474    0.662323
    C    1.582648    0.694695    0.065762
    H    1.816212    1.788335    0.036920

