%NProcShared=1
#p b3lyp/6-311++G(3df,2p) freq symmetry=Loose

 b3lyp opt

3 4
C  0.534357989  0.885985163 -0.196687053
H  2.150691055  0.000897393  1.207812263
C -0.616553015 -0.000118919 -0.035596074
C -2.032122977 -0.000208555  0.098506111
H -2.525699800  0.000297900  1.107775961
H -2.704238995 -0.000792145 -0.806275974
C  0.534563989 -0.886134837 -0.195697053
C  1.647415996  0.000246034  0.146588983
H  2.673281957  0.000053229 -0.411999206

