%NProcShared=4
#p b3lyp/6-311++G(3df,2p) freq IOp(2/17=3) IOp(2/18=3)

 b3lyp opt

3 2
C -1.378779000  0.265164000 -0.000241000
C -0.102234000 -0.406221000 -0.000254000
C  1.163187981  0.261913955 -0.000128810
H -1.576681989  1.395411026 -0.000132745
H -0.103955008 -1.504768019 -0.000367810
H  1.317558934  1.400885846 -0.000004057
C  2.397082006 -0.109706986 -0.000112663
C -2.602236984 -0.181441962 -0.000341397
H  3.503318027 -0.266641937 -0.000079940

