%NProcShared=4
#p b3lyp/6-311++G(3df,2p) freq symmetry=Loose

 b3lyp opt

0 1
    C    1.016963   -0.427400   -0.224058
    H    1.339918   -0.089046   -1.251447
    H    1.240121   -1.499732   -0.176467
    C    1.949485    0.544826    0.325284
    H    2.937074    0.050002    0.314360
    C   -0.423780   -0.146942   -0.070164
    C   -1.686709   -0.659646    0.304137
    C   -1.462517    0.671082   -0.100873
    H   -1.877765    1.647258   -0.292413

