%NProcShared=4
#p b3lyp/6-311++G(3df,2p) freq IOp(2/17=3) IOp(2/18=3)

 b3lyp opt

0 3
C  1.132469913 -0.532080784 -0.000134330
H  1.163549752 -1.616052895 -0.000246738
H  2.090850969 -0.033769474 -0.000144654
H -1.163458249 -1.616118038 -0.000098418
C  0.000047393  0.125690963  0.790571353
C -0.000053391  0.125852037 -0.790561607
C -0.000037616  1.362652967  0.000130880
C -1.132439086 -0.532144188  0.000010032
H -2.090848033 -0.033886537  0.000121882

