%NProcShared=4
#p b3lyp/6-311++G(3df,2p) freq symmetry=Loose

 b3lyp opt

3 2
    C    0.651491    0.779706    0.053101
    C   -0.615751    0.000339    0.390257
    C    0.651502   -0.779798    0.053812
    C    1.745403   -0.000083   -0.212868
    H   -0.884302    0.000903    1.495038
    H    2.840614    0.000006   -0.447514
    C   -1.936763   -0.000187   -0.297012
    H   -2.465412   -0.960605   -0.485846
    H   -2.466186    0.959838   -0.485422

