%NProcShared=1
#p b3lyp/6-311++G(3df,2p) freq symmetry=Loose

 b3lyp opt

1 2
C -0.352585000  0.000003746  0.000017180
C  0.991436000  0.000012551  0.000012115
C -1.581106464 -0.665692302  0.046370809
H -2.117846654 -1.600524818  0.095533331
C -1.581115536  0.665683698 -0.046327191
H -2.117868345  1.600509181 -0.095485668
C  2.279104000  0.000020987  0.000007263
H  2.850572476  0.406827731  0.833351610
H  2.850571526 -0.406778269 -0.833341390

