%NProcShared=4
#p b3lyp/6-311++G(3df,2p) freq symmetry=Loose

 b3lyp opt

2 3
    C    0.925204   -0.430054   -0.053870
    H    0.725173   -1.498237   -0.124460
    C    2.277153    0.017013    0.016513
    H    2.564957    1.044796   -0.213700
    H    3.066308   -0.678248    0.312557
    C   -1.459400    0.073064    0.018001
    C   -2.665121   -0.229241    0.007999
    C   -0.143031    0.495438    0.007873
    H    0.040460    1.571037    0.052516

