%NProcShared=4
#p b3lyp/6-311++G(3df,2p) freq symmetry=Loose

 b3lyp opt

0 1
    C   -0.304857   -0.000096   -0.000088
    C    0.982972   -0.000208    0.000158
    C   -1.602466   -0.652519    0.000051
    H   -2.154548   -1.575970    0.000175
    C   -1.602494    0.652275   -0.000215
    H   -2.154662    1.575673   -0.000203
    C    2.290103   -0.000093   -0.000200
    H    2.865223    0.000326    0.921012
    H    2.864680    0.000126   -0.921761

