%NProcShared=1
#p b3lyp/6-311++G(3df,2p) freq symmetry=Loose

 b3lyp opt

0 1
C  0.000121293 -1.188159004 -0.239221018
C  1.009307030 -0.091369391 -0.273090154
H  2.076863117 -0.070723571 -0.120437378
C -0.000194037  0.038131994  0.877132970
H -0.000445568  0.149545054  1.942611267
C -1.009151055 -0.091463601 -0.273556808
H -2.076779535 -0.070917440 -0.121397672
C  0.000040600  0.986866999 -0.329296004
H -0.000022976  2.068054989 -0.272585052

