%NProcShared=1
#p b3lyp/6-311++G(3df,2p) freq symmetry=Loose

 b3lyp opt

0 1
C -1.506752583 -0.664930289  0.000303706
C -1.505260139  0.668168220 -0.000239547
C -0.179142279  0.000133488  0.000001766
C  1.142632513 -0.740251648  0.000272661
H  1.355072588 -1.280774969  0.913474390
H  1.355030038 -1.281519026 -0.912498154
C  1.144286965  0.737557215 -0.000329563
H  1.357895053  1.277603558 -0.913541026
H  1.357937603  1.278347615  0.912431518

