%NProcShared=4
#p b3lyp/6-311++G(3df,2p) freq symmetry=Loose

 b3lyp opt

0 3
    C    1.231852    1.049039    0.010164
    H    1.056771    1.658785   -0.876217
    H    1.002409    1.659672    0.883605
    H    2.280747    0.761327    0.042815
    C   -1.059949    0.001841   -0.069208
    C   -2.315056    0.169389    0.048708
    C    0.318055   -0.163387   -0.015666
    C    0.805229   -1.422207    0.009324
    H    1.779284   -1.887839    0.049868

