%NProcShared=4
#p b3lyp/6-311++G(3df,2p) freq symmetry=Loose

 b3lyp opt

1 2
    C   -1.347724    0.708280    0.076312
    C   -0.241688   -0.091348    0.215109
    H   -1.819666    1.675039    0.161934
    C    1.200791   -0.236770    0.440923
    H    1.512039   -1.251678    0.714092
    H    1.560240    0.452379    1.229743
    C    1.943695    0.306209   -0.721773
    C   -1.428522   -0.595061   -0.256625
    H   -2.011926   -1.423598   -0.629444

