%NProcShared=4
#p b3lyp/6-311++G(3df,2p) freq symmetry=Loose

 b3lyp opt

0 3
    C   -0.582530   -0.000321   -0.008172
    C    0.492739   -0.878967    0.192240
    H    1.929836    0.000712   -1.204001
    H   -2.508359    0.931026   -0.106321
    C    0.492309    0.878651    0.192509
    C    1.654542    0.000219   -0.151145
    H    2.522496    0.000473    0.501805
    C   -1.962949    0.000116   -0.072983
    H   -2.508637   -0.930405   -0.106179

