%NProcShared=4
#p b3lyp/6-311++G(3df,2p) freq IOp(2/17=3) IOp(2/18=3)

 b3lyp opt

1 2
C  1.361795288 -0.737150085  0.000170006
C  1.361459501  0.737820770  0.000157083
C  0.043046040  0.000035158  0.000019564
H  1.546293182 -1.281959739  0.921709391
H  1.545910565  1.282714418 -0.921342015
H  1.545709314  1.282730520  0.921686921
H  1.546494432 -1.281975840 -0.921319545
C -1.233667000 -0.000255495 -0.000119844
C -2.563368786 -0.000558211 -0.000265039

