%NProcShared=4
#p b3lyp/6-311++G(3df,2p) freq symmetry=Loose

 b3lyp opt

1 2
    C   -1.215844   -0.225069    0.000000
    C   -2.337947    0.239277    0.000000
    C    1.435673    1.077990    0.000000
    H    0.592037    1.757842    0.000000
    H    2.425191    1.517383    0.000000
    C    1.268548   -0.275782    0.000000
    H    2.129481   -0.931015    0.000000
    C    0.000000   -0.879346    0.000000
    H   -0.049288   -1.966627    0.000000

