%NProcShared=1
#p b3lyp/6-311++G(3df,2p) freq symmetry=Loose

 b3lyp opt

0 3
C  0.081520099  1.231901986  0.000047528
H  0.111292813  2.308865027  0.000077556
C -0.668196000  0.074749000  0.000190000
C -1.829343964 -0.597698005  0.000449415
H -1.852587723 -1.677034039  0.000417715
H -2.772316539 -0.067804065  0.000697328
C  0.818600922  0.057152011 -0.000172580
C  1.964553909 -0.591830987 -0.000474033
H  2.310802857 -1.609670980 -0.000593559

