%NProcShared=4
#p b3lyp/6-311++G(3df,2p) freq symmetry=Loose

 b3lyp opt

3 4
    C    0.685897   -1.066038   -0.188818
    C    1.691479   -0.144773    0.268133
    C   -0.325625   -0.038149   -0.061936
    C    0.775273    0.926523   -0.066753
    H    0.911831    1.992909   -0.351302
    C   -1.783934   -0.104826    0.042964
    H   -2.454916    0.731621    0.683271
    H   -2.383500    0.900878   -0.357832
    H   -2.331956   -1.061830    0.064323

