%NProcShared=1
#p b3lyp/6-311++G(3df,2p) freq symmetry=Loose

 b3lyp opt

0 1
C -1.857526981 -0.000126641 -0.108419066
H -2.408133521 -0.925860048 -0.187075255
H -2.408283485  0.925562230 -0.186547723
C -0.543329985 -0.000064506  0.047104949
C  0.646000687 -0.829449155  0.152541156
H  0.834734924 -1.640943410  0.847695911
C  0.645866317  0.829452582  0.153013832
H  0.834469123  1.640581124  0.848630927
C  1.633525960  0.000257645 -0.464690859

