%NProcShared=4
#p b3lyp/6-311++G(3df,2p) freq symmetry=Loose

 b3lyp opt

0 3
    C    1.890390   -0.788282   -0.000000
    H    1.334460   -1.725472    0.000000
    H    2.970504   -0.863126    0.000000
    C    1.263819    0.389953   -0.000000
    C    0.000048    0.954837   -0.000000
    H   -0.098683    2.035125    0.000000
    C   -1.169276    0.192979    0.000000
    C   -2.175893   -0.479258    0.000000
    H   -3.063123   -1.062476   -0.000000

