%NProcShared=1
#p b3lyp/6-311++G(3df,2p) freq symmetry=Loose

 b3lyp opt

1 4
C  0.391452617 -0.000072503  0.000936060
C -1.547176168  0.000010027 -0.000543055
C -0.601712130  1.064164776  0.000155307
H -0.613914236  2.139694288  0.000122754
C -0.601802774 -1.064225217  0.000201234
H -0.614096488 -2.139753686  0.000215098
C  1.785165621 -0.000131835  0.001999420
H  2.336075190 -0.931787789  0.002439880
H  2.336154542  0.931477210  0.002399674

