%NProcShared=1
#p b3lyp/6-311++G(3df,2p) freq symmetry=Loose

 b3lyp opt

0 1
C -1.926152964  0.517923133  0.000016254
C  1.896252989  0.208132959 -0.000254763
H  2.313616914  1.204177680 -0.000670717
H  2.574749076 -0.631889717 -0.000008359
C  0.588673978  0.020814920 -0.000052022
C -0.660369049  0.656432820 -0.000163941
C -0.477005963 -0.996897865  0.000437740
H -0.708289732 -1.505018764  0.925660309
H -0.708477152 -1.505712809 -0.924356439

