%NProcShared=4
#p b3lyp/6-311++G(3df,2p) freq symmetry=Loose

 b3lyp opt

2 1
    C    1.362332    0.116858   -0.243020
    C   -0.903870   -0.830206    0.229837
    C    0.370326   -0.898837    0.037322
    H    2.251522    0.173818    0.397249
    H    1.570665    0.261006   -1.310038
    C    0.060713    0.788851    0.355518
    H    0.100394    1.193844    1.371508
    C   -1.211434    0.411323   -0.299885
    H   -1.990975    0.843396   -0.937352

