%NProcShared=4
#p b3lyp/6-311++G(3df,2p) freq symmetry=Loose

 b3lyp opt

0 1
    C    1.303982    0.075108   -0.000092
    C   -2.269564   -0.432882    0.000244
    C    0.053595    0.750360    0.000625
    H    0.077886    1.836975   -0.000368
    C   -1.110417    0.147017    0.000801
    H   -2.773096   -0.687884   -0.925306
    H   -2.774125   -0.687868    0.925189
    C    2.379974   -0.460087   -0.000432
    H    3.326144   -0.941417   -0.000115

