%NProcShared=4
#p b3lyp/6-311++G(3df,2p) freq symmetry=Loose

 b3lyp opt

2 1
    C   -2.467033    0.032130    0.000112
    H   -2.959746    1.009321    0.000200
    H   -2.837094   -0.663449    0.817656
    H   -2.837310   -0.663667   -0.816963
    C   -1.100129    0.022310    0.000355
    C    0.175463    0.009675   -0.000073
    C    1.471267   -0.001293    0.000209
    C    2.724329   -0.006994    0.000251
    H    3.811687   -0.012175   -0.000274

