%NProcShared=1
#p b3lyp/6-311++G(3df,2p) freq symmetry=Loose

 b3lyp opt

0 3
C -0.705919007  0.809346360 -0.000758911
C  0.042531018  0.000959663  1.014432895
C  1.249915978 -0.000192997 -0.000029014
C  0.042488988 -0.000971155 -1.014441254
H -1.609856119  1.398728506 -0.001301082
H  1.841388473 -0.912825681  0.000827258
H  1.841671482  0.912256185 -0.000909623
C -0.706169977 -0.809125671  0.000781345
H -1.610289832 -1.398227413  0.001360705

