%NProcShared=4
#p b3lyp/6-311++G(3df,2p) freq symmetry=Loose

 b3lyp opt

1 4
    C    1.932535   -0.427728   -0.000152
    C    0.540861   -0.161712   -0.000083
    C    1.530035    0.854571    0.000159
    C   -1.933773    0.327979   -0.000083
    H   -2.567125    0.104431   -0.868663
    H   -2.568562    0.104185    0.867534
    H   -1.665944    1.380185    0.000402
    C   -0.779101   -0.581925    0.000225
    H   -0.941711   -1.655914    0.000336

