%NProcShared=4
#p b3lyp/6-311++G(3df,2p) freq symmetry=Loose

 b3lyp opt

1 4
    C   -0.298374   -0.161587   -0.062598
    C    1.039060   -0.557775   -0.058177
    H    1.263289   -1.590367   -0.320937
    C    2.154762    0.372352    0.208826
    H    2.913367    0.759201   -0.461338
    C   -1.277433    0.826949   -0.045382
    H   -1.544210    1.870075   -0.112410
    C   -1.651422   -0.455328    0.070913
    H   -2.432001   -1.186577    0.213191

