%NProcShared=1
#p b3lyp/6-311++G(3df,2p) freq symmetry=Loose

 b3lyp opt

0 3
C  0.574557573  1.172171430  0.143708679
C  0.571608190 -1.173624324  0.143691320
C  0.725898840 -0.000912398 -0.692130001
H  1.202190919  1.285703215  1.025129026
H  0.221038906 -2.088390747 -0.312988454
H  1.198954046 -1.288747047  1.025109974
H  0.226289685  2.087823264 -0.312957549
C -0.495031069  0.000616141  0.192146000
C -1.851779496  0.002323594 -0.024797997

