%NProcShared=4
#p b3lyp/6-311++G(3df,2p) freq symmetry=Loose

 b3lyp opt

0 1
    C   -2.166084   -0.144163   -0.160625
    C    1.447414   -0.604402    0.001394
    H    2.328483   -0.694925    0.628812
    H    1.250424   -1.487126   -0.599467
    C    0.344820    0.282320    0.495012
    H    0.530561    0.811360    1.425012
    C    1.245280    0.693466   -0.667300
    C   -1.025669    0.055271    0.159304
    H   -3.177778   -0.318886   -0.430412

