%NProcShared=4
#p b3lyp/6-311++G(3df,2p) freq IOp(2/17=3) IOp(2/18=3)

 b3lyp opt

3 2
C -2.297721996  0.475317013 -0.000020114
C  1.626513002 -0.559654995  0.000010726
H  1.795652988  1.819221963  0.000299691
H  2.141753999 -1.548001003 -0.000086400
C  0.268588003 -0.009609991  0.000022831
C  1.397512992  0.765838976  0.000159077
C -1.149387998 -0.383642994 -0.000077091
H -1.505249406 -1.000462338  0.929198336
H -1.505176617 -1.000241731 -0.929526777

