%NProcShared=4
#p b3lyp/6-311++G(3df,2p) freq symmetry=Loose

 b3lyp opt

1 4
    C    0.004565    1.042426   -0.008419
    C   -0.910173   -0.040064    0.474594
    C    0.918140   -0.078498   -0.481972
    H   -0.357825    1.647434   -0.831796
    H    0.411406    1.639820    0.801528
    H   -0.793881   -0.382944    1.505336
    H    0.856101   -0.432798   -1.513231
    C   -1.826381   -0.669397   -0.316464
    C    1.794666   -0.665570    0.338264

