%NProcShared=4
#p b3lyp/6-311++G(3df,2p) freq symmetry=Loose

 b3lyp opt

0 1
    C   -1.242927   -0.357039    0.158846
    C    0.832633    0.792738    0.025984
    H   -2.290027   -0.578982    0.055988
    H   -1.150650    1.748248   -0.392681
    H    1.494376    1.628085   -0.149024
    C    1.146867   -0.535469    0.079474
    C   -0.131908   -1.084787   -0.227084
    C   -0.629174    0.891723    0.019714
    H    2.093358   -1.040348    0.144116

