%NProcShared=1
#p b3lyp/6-311++G(3df,2p) freq symmetry=Loose

 b3lyp opt

3 4
C  2.647982996 -0.165036956 -0.000153991
C  0.067440988 -0.439494885 -0.000161738
H  1.259315807  1.107758589  0.911525890
H  0.158509978 -1.556573781 -0.000842825
C -1.240177003 -0.053350975  0.000151937
C -2.508892962  0.147427630  0.000351137
H -3.607422913  0.332228144  0.000530240
C  1.270366982  0.433666179  0.000292512
H  1.259204118  1.108860148 -0.910123584

