%NProcShared=4
#p b3lyp/6-311++G(3df,2p) freq symmetry=Loose

 b3lyp opt

1 2
    C   -2.130236   -0.000568   -0.186409
    C   -0.770495    0.001314   -0.087663
    C    1.452158   -0.001338   -0.316413
    H    2.400431   -0.001865    0.209532
    H    1.541486   -0.002595   -1.400117
    C    0.335623   -0.835889    0.230555
    H    0.350265   -1.608603    0.990187
    C    0.337579    0.836558    0.228626
    H    0.353974    1.610122    0.987360

