%NProcShared=4
#p b3lyp/6-311++G(3df,2p) freq symmetry=Loose

 b3lyp opt

0 1
    C    1.066519    0.558635    0.000000
    H    2.060036    0.101748    0.000000
    C    0.757136    1.914595    0.000000
    H    1.697006    2.492936    0.000000
    C    0.000000   -0.319778    0.000000
    C   -0.590200   -1.595569    0.000000
    H   -0.496950   -2.668021    0.000000
    C   -1.381582   -0.527861    0.000000
    H   -2.371333   -0.106792    0.000000

