%NProcShared=4
#p b3lyp/6-311++G(3df,2p) freq symmetry=Loose

 b3lyp opt

0 3
    C   -1.723525    0.680666   -0.506262
    C    1.388026    0.888390    0.015915
    H    2.433537    0.784661   -0.229379
    H    1.013925    1.867434    0.271115
    C    0.563232   -0.220192    0.004275
    C    0.598997   -1.529556   -0.217813
    C   -0.976212   -0.098885    0.412207
    H   -1.056296    0.098264    1.486192
    H   -1.494274   -1.072893    0.222136

