%NProcShared=1
#p b3lyp/6-311++G(3df,2p) freq symmetry=Loose

 b3lyp opt

0 1
C  0.000085577  0.679124973 -0.000252687
C -1.204992877 -0.168735026  0.345288321
C  1.204967102 -0.169265999 -0.345176611
H -0.237250083  1.323488700 -0.845177702
H  0.237570918  1.324048160  0.844203295
H -1.170416979 -0.828316112  1.218146358
H  1.170237981 -0.829473944 -1.217554518
C -2.342039611 -0.252865392 -0.264695174
C  2.341994323 -0.253216540  0.264868031

