%NProcShared=4
#p b3lyp/6-311++G(3df,2p) freq IOp(2/17=3) IOp(2/18=3)

 b3lyp opt

0 3
C  1.142298467 -0.005911258 -0.000144981
H  1.744415713 -0.008855561  0.909230081
H  1.742616529 -0.009179631 -0.910551948
C -0.051185279  1.004128416  0.000023597
C -0.061558201 -1.003564735  0.000391385
H -0.119267284 -2.079551709  0.001178544
C -0.787325216  0.003904184 -0.841497992
C -0.787227499  0.004211928  0.841181982
H -0.097773216  2.080654466  0.000416438

