%NProcShared=1
#p b3lyp/6-311++G(3df,2p) freq symmetry=Loose

 b3lyp opt

0 1
C -1.175431771 -0.000102588 -0.000565257
H -1.804619798 -0.000090216 -0.895143020
H -1.805442352 -0.000220178  0.893433402
C -0.030405032  1.017930585  0.000035305
C -0.030234848 -1.017944391 -0.000112547
H  0.036003812 -2.091562861 -0.000160096
C  0.912596177  0.000023467  0.667105548
C  0.913209408  0.000120356 -0.666315215
H  0.035654133  2.091560109  0.000143698

