%NProcShared=4
#p b3lyp/6-311++G(3df,2p) freq symmetry=Loose

 b3lyp opt

2 1
    C   -0.580377    0.032032   -0.100331
    C   -1.917845    0.276913    0.243072
    C    0.148972   -1.145669   -0.260739
    H   -0.039329   -2.205470   -0.439937
    C    1.118038   -0.279206    0.323016
    H    1.624973   -0.466295    1.280715
    C    0.696469    1.038533   -0.207511
    H    0.838932    1.231337   -1.272840
    H    0.783883    1.904809    0.447018

