%NProcShared=1
#p b3lyp/6-311++G(3df,2p) freq symmetry=Loose

 b3lyp opt

0 3
C -0.096520858 -1.954886237  0.000000000
H -1.155186885 -2.167908802  0.000000000
H  0.593532071 -2.788378782  0.000000000
C  0.368924845 -0.699212856  0.000000000
C  0.000150149  0.790563916 -0.000000000
C  1.286511175  0.318454658  0.000000000
C -0.997307799  1.684114689 -0.000000000
H -0.775753448  2.743263658 -0.000000000
H -2.033098880  1.378681874 -0.000000000

