%NProcShared=4
#p b3lyp/6-311++G(3df,2p) freq symmetry=Loose

 b3lyp opt

1 2
    C    1.114272    1.179323    0.000000
    C   -0.022506   -2.001746    0.000000
    H    1.059506   -2.032715    0.000000
    H   -0.546571   -2.948360    0.000000
    C   -0.701774   -0.840464    0.000000
    H   -1.783523   -0.803560    0.000000
    C    0.000000    0.381830    0.000000
    C   -0.060116    1.801034    0.000000
    H   -0.708670    2.664774    0.000000

