%NProcShared=4
#p b3lyp/6-311++G(3df,2p) freq IOp(2/17=3) IOp(2/18=3)

 b3lyp opt

1 4
C -0.000033931  1.114210999 -0.000077999
H  0.000002196  1.770382997  0.878742007
H -0.000109185  1.769951002 -0.879247004
C -1.182355542  0.178861258  0.000112417
H -2.219103250  0.489843855  0.000621111
C -0.701979059 -1.112701926  0.000007984
C  0.702043959 -1.112660076 -0.000080981
C  1.182343454  0.178931744 -0.000037421
H  2.219072677  0.489976145  0.000339889

