%NProcShared=4
#p b3lyp/6-311++G(3df,2p) freq symmetry=Loose

 b3lyp opt

0 3
    C    0.198793    1.379588    0.000013
    C   -0.526727    0.200878   -0.000151
    C   -1.836942   -0.474321   -0.000016
    H   -2.650605    0.249234   -0.006293
    H   -1.924503   -1.123836   -0.873183
    H   -1.929034   -1.112776    0.880369
    C    0.827915    0.055258   -0.000020
    C    1.923336   -0.738957   -0.000022
    H    2.985890   -0.547300    0.000275

