%NProcShared=4
#p b3lyp/6-311++G(3df,2p) freq symmetry=Loose

 b3lyp opt

3 2
    C    1.493128    0.000977   -0.000685
    H    2.104772    0.261883   -0.913046
    H    2.105707   -0.256406    0.912542
    C    0.293711   -0.861312   -0.195292
    C    0.289372    0.862474    0.196971
    C   -1.067724   -0.734303    0.080544
    H   -1.914365   -1.443650    0.292632
    C   -1.071097    0.732119   -0.081601
    H   -1.920463    1.438445   -0.291749

