%NProcShared=1
#p b3lyp/6-311++G(3df,2p) freq symmetry=Loose

 b3lyp opt

1 2
C -0.632221994 -0.506854221 -0.001429684
C  0.601394991 -0.139079673  0.790310426
H -0.856829009 -1.569736649 -0.004530485
C -1.752996985  0.407160437  0.001339838
H -2.757030048  0.011305801  0.000257155
H -1.597839905  1.476064430  0.004463751
C  0.601270991 -0.134439673 -0.791191574
C  1.612885993  0.280915257  0.000705538
H  2.629703003  0.636153888  0.001668055

