%NProcShared=4
#p b3lyp/6-311++G(3df,2p) freq symmetry=Loose

 b3lyp opt

1 2
    C    1.938503   -0.610370    0.059875
    C   -1.898674   -0.252310    0.024278
    H   -2.243687   -1.277899   -0.006448
    H   -2.625836    0.547281    0.079621
    C   -0.564216    0.019120   -0.015296
    C    0.632081   -0.626319   -0.075489
    C    0.460327    1.074253   -0.006295
    H    0.743271    1.528624    0.934851
    H    0.718120    1.575753   -0.930459

