%NProcShared=4
#p b3lyp/6-311++G(3df,2p) freq symmetry=Loose

 b3lyp opt

2 3
    C    1.398128   -0.703158    0.000169
    C    1.365942    0.737607   -0.000228
    H    1.984717   -1.620540    0.000801
    H    1.681332    1.319107   -0.899416
    H    1.683041    1.318844    0.898396
    C    0.169035   -0.102079    0.000244
    C   -1.227078   -0.293168   -0.000305
    H   -1.724567   -1.318603   -0.002215
    C   -2.310114    0.410996    0.000525

