%NProcShared=4
#p b3lyp/6-311++G(3df,2p) freq symmetry=Loose

 b3lyp opt

0 1
    C    0.876078    0.645303    0.256006
    H    1.320215    1.452950    0.810139
    C    1.155865   -0.813465   -0.189446
    C   -0.001585   -0.476851    0.554071
    H   -1.847900    0.643822    0.814713
    C   -0.231040    0.492504   -0.718618
    H   -0.072412    0.045254   -1.703131
    C   -1.361544   -0.071180    0.160391
    H   -2.026547   -0.799891   -0.296146

