%NProcShared=1
#p b3lyp/6-311++G(3df,2p) freq symmetry=Loose

 b3lyp opt

0 1
C -0.000000096 -0.001325450 -2.506911357
H -0.000001094  1.017706418 -2.898492782
H -0.882676526 -0.511135498 -2.897728447
H  0.882677293 -0.511133792 -2.897728503
C -0.000000051 -0.000600326 -1.056446712
C -0.000000013  0.000003016  0.150416122
C  0.000000029  0.000684193  1.512973603
C  0.000000067  0.001286772  2.718310221
H  0.000000100  0.001817403  3.779729203

