%NProcShared=1
#p b3lyp/6-311++G(3df,2p) freq symmetry=Loose

 b3lyp opt

1 4
C  2.125277834 -0.435915106 -0.000565521
H  2.777554835 -0.226519105  0.861287934
H  2.777060835 -0.226834105 -0.862869066
H  1.803936835 -1.471436105 -0.000284264
C -0.289163992  0.227608005  0.000005033
C -1.532088882 -0.011173925  0.000404776
C -2.780970772 -0.261720855  0.000808377
C  1.034195871  0.536155918 -0.000430503
H  1.297954785  1.595069863 -0.000699536

