%NProcShared=1
#p b3lyp/6-311++G(3df,2p) freq symmetry=Loose

 b3lyp opt

2 3
C  0.671033990 -0.000120346  0.298011001
H  1.015635984 -0.000169928  1.376400001
C  2.048639959 -0.000386523 -0.220212997
H -2.529687966  0.000478144  0.084886997
C -0.443803467  0.952728133 -0.097910408
H -0.410522082  1.909987015 -0.622583380
C -1.442405968  0.000273777  0.081966998
C -0.444161515 -0.952560895 -0.097883593
H -0.411239917 -1.909846986 -0.622529620

