%NProcShared=1
#p b3lyp/6-311++G(3df,2p) freq symmetry=Loose

 b3lyp opt

0 3
C  1.449280005 -0.218225954 -0.000212226
C  0.623629990  1.051320912 -0.000684855
H  0.682521896  1.666010003 -0.896939704
H  0.361892014 -2.181046877  0.000625613
C  0.455319997 -1.107912027  0.000190246
H  0.682603098  1.666729945  0.895070460
C -0.533827985  0.003397135 -0.000211402
C -1.826142009  0.149869919 -0.000211688
H -2.735869987 -0.423085884  0.000059720

