%NProcShared=4
#p b3lyp/6-311++G(3df,2p) freq symmetry=Loose

 b3lyp opt

0 3
    C    0.534475   -0.165527    0.436106
    C   -1.802858   -0.118195   -0.082050
    C   -0.643805   -0.754043   -0.285770
    H    0.581685   -0.440213    1.483290
    C    1.810302    0.019740   -0.225934
    H    2.728561    0.032957    0.340785
    H    1.857603    0.170905   -1.294469
    C   -0.668887    0.768923    0.129729
    H   -0.543209    1.730957   -0.362082

