%NProcShared=4
#p b3lyp/6-311++G(3df,2p) freq IOp(2/17=3) IOp(2/18=3)

 b3lyp opt

3 2
C  1.459555876  0.000908741  0.418047962
C  0.657840069  1.020125707 -0.156914156
H  0.766314198  2.051789785 -0.555708948
C -0.384822193 -0.000275828 -0.079130060
C  0.659049676 -1.019468241 -0.156541922
H  0.768747497 -2.051148424 -0.554960145
H -2.306007634 -0.001195497  1.124758420
C -1.843870539 -0.001107624  0.104488142
H -2.515569718 -0.001669922 -0.793782913

