%NProcShared=4
#p b3lyp/6-311++G(3df,2p) freq symmetry=Loose

 b3lyp opt

2 3
    C   -0.546545   -0.961134   -0.245223
    C    0.537254   -0.037728   -0.031981
    C    1.930353   -0.015847    0.096840
    H    2.457597    0.924673    0.250145
    H    2.495188   -0.947375    0.064443
    C   -0.608379    0.870201   -0.079574
    H   -0.719259    1.886106   -0.480936
    C   -1.579621   -0.133758    0.207167
    H   -2.631894   -0.193809    0.482975

