%NProcShared=4
#p b3lyp/6-311++G(3df,2p) freq symmetry=Loose

 b3lyp opt

3 4
    C   -0.475667   -0.989807   -0.251127
    C    0.607944   -0.059364    0.280018
    C   -1.611290   -0.130958    0.001536
    H    0.755563   -0.255657    1.420639
    H   -2.711919   -0.215795    0.152634
    C    1.976853    0.084512   -0.127929
    H    2.974350   -0.349152   -0.405137
    C   -0.571600    0.917125   -0.007171
    H   -0.574518    1.896451   -0.542908

