%NProcShared=4
#p b3lyp/6-311++G(3df,2p) freq symmetry=Loose

 b3lyp opt

0 1
    C    1.177327    0.120159    0.038182
    C   -1.251223   -0.214255   -0.323841
    H   -1.208453   -0.812644   -1.236726
    C   -2.304071   -0.444241    0.389956
    C   -0.128524    0.765038   -0.017282
    H   -0.124042    1.537503   -0.790066
    H   -0.335216    1.268092    0.928254
    C    2.250364   -0.411775    0.076335
    H    3.202120   -0.881095    0.115240

