%NProcShared=4
#p b3lyp/6-311++G(3df,2p) freq symmetry=Loose

 b3lyp opt

3 2
    C    0.469118   -0.002239    0.500879
    C   -0.828599    0.766303    0.029642
    C   -1.814003    0.001306   -0.289985
    C   -0.828685   -0.766566    0.022981
    H    0.564195   -0.006925    1.601530
    C    1.721837    0.001488   -0.343596
    H    2.685415   -0.566720    0.157142
    H    1.746835    0.007051   -1.440697
    H    2.685551    0.564843    0.162495

