%NProcShared=1
#p b3lyp/6-311++G(3df,2p) freq symmetry=Loose

 b3lyp opt

0 3
C  1.206183034  0.162118637 -0.000170406
C -0.000539643  1.088828902  0.000203286
H  2.229694633  0.501484540 -0.000098711
H -0.000875085  1.735034610 -0.883314638
H -0.000796502  1.734424208  0.884167361
C  0.731556622 -1.078192739 -0.000577646
C -1.206412002  0.161012403 -0.000063523
C -0.730648401 -1.078863195 -0.000512868
H -2.230234375  0.499439554  0.000098872

