%NProcShared=4
#p b3lyp/6-311++G(3df,2p) freq symmetry=Loose

 b3lyp opt

1 4
    C    0.659989   -0.840351   -0.155943
    C    1.754029    0.000313    0.178372
    C    0.659629    0.840215   -0.155931
    H    2.827858    0.000451    0.097265
    C   -0.465916   -0.000624    0.056304
    C   -1.927190   -0.000211    0.036184
    H   -2.304956   -0.906424   -0.435331
    H   -2.302997    0.027592    1.065033
    H   -2.303150    0.882322   -0.480880

