%NProcShared=1
#p b3lyp/6-311++G(3df,2p) freq symmetry=Loose

 b3lyp opt

3 4
C -1.321761998  0.000025818 -0.000030267
H -2.390575788  0.000053361 -0.586889011
H -2.390600214  0.000046970  0.586783989
C -0.330030010  1.053120727 -0.000003893
C -0.330077990 -1.053114273 -0.000015363
H -0.338283186 -2.159173584 -0.000021557
C  0.733665000 -0.000021005  0.000012510
C  2.157811998 -0.000053446  0.000042148
H -0.338184815  2.159180411  0.000001961

