%NProcShared=4
#p b3lyp/6-311++G(3df,2p) freq symmetry=Loose

 b3lyp opt

1 4
    C   -1.469615    0.716878   -0.022247
    C   -1.510474   -0.577032   -0.202347
    C   -0.283794    0.049318    0.508083
    H   -1.948133   -1.533763   -0.438336
    H   -0.100206   -0.136457    1.566843
    C    1.006004    0.241095   -0.333529
    H    1.450016    1.256464   -0.104336
    H    0.866876    0.227728   -1.423819
    C    2.211888   -0.400569    0.114932

