%NProcShared=4
#p b3lyp/6-311++G(3df,2p) freq symmetry=Loose

 b3lyp opt

2 1
    C   -1.286032   -1.077136    0.255433
    C    1.713377   -0.243053   -0.205752
    H    2.579011   -0.373002    0.453407
    H    1.860987   -0.353776   -1.283278
    C    0.460641    0.067026    0.354373
    H    0.260709   -0.148282    1.437648
    C   -0.472546    1.290504    0.208802
    C   -1.006414    0.080580   -0.455515
    H   -1.154857    0.167527   -1.551819

