%NProcShared=4
#p b3lyp/6-311++G(3df,2p) freq symmetry=Loose

 b3lyp opt

3 4
    C   -0.376678   -1.044905   -0.164247
    C   -1.472937   -0.137396    0.092498
    H   -2.326428   -0.261771    0.918240
    H   -0.568113    2.024518   -0.285316
    H   -2.546855   -0.175400   -0.452319
    C   -0.488236    0.941681   -0.040424
    C    0.652855   -0.008936   -0.009223
    C    2.088203    0.074194    0.083757
    H    3.022150   -0.535178    0.045229

