%NProcShared=4
#p b3lyp/6-311++G(3df,2p) freq symmetry=Loose

 b3lyp opt

1 4
    H    1.842775   -0.372922    1.211628
    C    0.382721   -0.806767   -0.346754
    C   -0.694848   -0.030143    0.062370
    C   -2.045572    0.051941    0.087648
    H   -2.912850   -0.587939    0.075023
    C    0.447328    0.832111   -0.016191
    H    0.518511    1.777083   -0.550818
    C    1.593501   -0.170696    0.171055
    H    2.452778   -0.074899   -0.484594

