%NProcShared=4
#p b3lyp/6-311++G(3df,2p) freq symmetry=Loose

 b3lyp opt

3 4
    H   -1.931608   -0.783990   -0.884516
    C    0.071580   -0.857139    0.000245
    C   -0.827117    1.022316   -0.000355
    C    0.644703    1.068965    0.000388
    C   -1.270300   -0.440018    0.000048
    H   -1.933186   -0.782342    0.884225
    C    1.346020   -0.347833   -0.000149
    H    2.037408   -0.554961   -0.902767
    H    2.038068   -0.556458    0.902000

