%NProcShared=1
#p b3lyp/6-311++G(3df,2p) freq symmetry=Loose

 b3lyp opt

3 4
C  0.910526010  1.376827263  0.001420750
C  1.728601003 -0.618217931  0.000049746
H  2.257738172 -0.825282581 -0.959486461
C  0.427682006  0.068718166  0.000495601
H  2.257688828 -0.826621429  0.959323274
C -0.935049006 -0.394358155  0.000137446
H -1.168133006 -1.526589167 -0.000658561
C -2.148207010  0.051709741  0.000417492
H -3.245163030  0.272483173  0.000543328

