%NProcShared=4
#p b3lyp/6-311++G(3df,2p) freq symmetry=Loose

 b3lyp opt

1 2
    C   -0.544512   -0.909389   -0.210943
    C    0.597187   -0.050920   -0.011686
    C    1.910378   -0.009031    0.070819
    H    2.432636    0.924959    0.226553
    H    2.493181   -0.918283    0.008245
    C   -0.616871    0.828115   -0.035904
    H   -0.718487    1.786972   -0.547518
    C   -1.601386   -0.128584    0.200662
    H   -2.676111   -0.174793    0.235033

