%NProcShared=4
#p b3lyp/6-311++G(3df,2p) freq symmetry=Loose

 b3lyp opt

1 2
    C    0.943239   -0.723462    0.106135
    C   -0.148973    0.396511    0.698835
    C   -1.423295    0.000331    0.000176
    C   -0.149369   -0.397266   -0.699260
    H    1.499382   -1.533047    0.552539
    H   -1.995398    0.807412   -0.442603
    H   -1.996618   -0.805617    0.442776
    C    0.943923    0.723594   -0.105792
    H    1.499478    1.533007   -0.553278

