%NProcShared=4
#p b3lyp/6-311++G(3df,2p) freq symmetry=Loose

 b3lyp opt

1 4
    C    1.194278    0.859471    0.259168
    C   -1.686219    0.455989   -0.024492
    H   -2.701485    0.336238   -0.380726
    H   -1.415460    1.411996    0.405188
    C   -0.817399   -0.591417   -0.070465
    H   -1.081522   -1.516395   -0.576463
    C    0.572433   -0.534604    0.447617
    H    0.955632   -1.284136    1.136291
    C    1.445319   -0.014405   -0.709933

