%NProcShared=4
#p b3lyp/6-311++G(3df,2p) freq symmetry=Loose

 b3lyp opt

2 3
    C    0.504767    0.751366   -0.000278
    H    2.373340    0.000137    0.937997
    C   -0.674672    0.000115    0.000062
    C   -2.063716   -0.000026    0.000003
    H   -2.600147    0.946373    0.000649
    H   -2.599762   -0.946749   -0.000514
    C    0.504661   -0.751302    0.000082
    C    1.804486   -0.000043    0.000075
    H    2.373412   -0.000421   -0.937795

