%NProcShared=4
#p b3lyp/6-311++G(3df,2p) freq symmetry=Loose

 b3lyp opt

3 2
    C    0.673272   -0.794269    0.000891
    C    1.823236   -0.010185   -0.000118
    C    0.695046    0.797260    0.000864
    H    2.947279   -0.029979   -0.000492
    C   -0.561508    0.004588    0.000173
    C   -1.917631    0.070028    0.000167
    H   -2.409211   -0.717238   -0.727018
    H   -2.408727   -0.717733    0.727061
    H   -2.404825    1.061297    0.000297

