%NProcShared=4
#p b3lyp/6-311++G(3df,2p) freq symmetry=Loose

 b3lyp opt

2 1
    C   -0.270780   -1.121487   -0.000595
    H   -0.390952   -1.790639    0.871691
    H   -0.468128   -1.768185   -0.875991
    C    1.084778   -0.406360    0.017664
    H    2.031088   -0.764499    0.439270
    C    0.787453    0.908467   -0.330730
    C   -0.285545    1.166349    0.329961
    C   -1.151455    0.132724   -0.016481
    H   -2.158714    0.245166   -0.433887

