%NProcShared=1
#p b3lyp/6-311++G(3df,2p) freq symmetry=Loose

 b3lyp opt

0 1
C  0.516927429  0.715945248 -0.201042361
H  2.112918001 -0.000274480  1.201093015
C -0.693627000  0.000006727  0.004557997
C -2.013161999  0.000007558  0.085622009
H -2.558033746  0.930454959  0.111868925
H -2.558058254 -0.930436128  0.111489070
C  0.516908571 -0.715879685 -0.201334633
C  1.750630999 -0.000059303  0.170329990
H  2.537111998  0.000082122 -0.573248028

