%NProcShared=1
#p b3lyp/6-311++G(3df,2p) freq symmetry=Loose

 b3lyp opt

3 2
C  1.994676902  0.535279051 -0.000062766
C -1.994692092  0.535218918 -0.000171694
C -0.714145349 -0.144775773  0.000003820
C  0.000020056 -1.299859945  0.000262062
C  0.714150652 -0.144754244  0.000042819
H  2.497419626  0.778576645  0.965249447
H -2.497442142  0.778102307 -0.965584394
H -2.497494865  0.778501356  0.965113062
H  2.497472349  0.778177597 -0.965448010

