%NProcShared=4
#p b3lyp/6-311++G(3df,2p) freq symmetry=Loose

 b3lyp opt

2 3
    H   -0.244918    1.483304    0.850161
    C   -0.206568    0.756465    0.000683
    H   -0.244699    1.486098   -0.846283
    C   -1.414723   -0.045541   -0.000463
    C   -2.505480   -0.657955   -0.000958
    C    1.067177    0.085374    0.000087
    C    2.220687   -0.415686    0.000046
    H    2.763133   -0.652793   -0.933411
    H    2.761943   -0.652292    0.934418

