%NProcShared=4
#p b3lyp/6-311++G(3df,2p) freq IOp(2/17=3) IOp(2/18=3)

 b3lyp opt

0 3
C  1.247601000 -0.273442000  0.000108000
C -1.215011000 -0.369746000 -0.000154000
H  2.218470998 -0.773933001  0.000187225
H  0.084268025 -2.108469989 -0.000095755
H -2.110018047 -0.984834020 -0.000275149
C -1.335091978  0.960106009 -0.000107125
C  1.355244951  1.044796979  0.000178185
C  0.039409021 -1.028661991 -0.000052185
H -0.745629903  1.868911042 -0.000004821

