%NProcShared=4
#p b3lyp/6-311++G(3df,2p) freq IOp(2/17=3) IOp(2/18=3)

 b3lyp opt

2 1
C  1.306500000 -0.071438000  0.000455000
C  0.101674000 -0.677016000  0.000397000
H  0.031959993 -1.787518993  0.000496250
C  2.439227979  0.400796020  0.000518794
H  3.435592963  0.823118037  0.000574246
C -1.136060990 -0.078485010  0.000220958
H -3.212096995 -0.284594005  0.000041129
C -2.327896987  0.386552987  0.000062063
H -2.543840997  1.473632997 -0.000062402

