%NProcShared=1
#p b3lyp/6-311++G(3df,2p) freq symmetry=Loose

 b3lyp opt

2 1
C  0.000039993  0.575729987  0.000182160
H  0.000446567  1.727872096 -0.486694146
H  3.373489873 -0.884022226  0.000315704
H -3.373061772 -0.884400594 -0.000842784
C -1.247671026  0.027646953 -0.000199403
C  1.247472986  0.027087976  0.000228838
C -2.378189900 -0.455881822 -0.000541136
H  0.000279255  1.727574588  0.487762000
C  2.378155954 -0.455754082  0.000275560

