%NProcShared=4
#p b3lyp/6-311++G(3df,2p) freq symmetry=Loose

 b3lyp opt

3 2
    C    0.750977   -0.049794    0.287852
    H    1.012766   -0.108197    1.410404
    C    2.144544   -0.018750   -0.313451
    C   -0.362212   -1.050771   -0.081451
    H   -2.299006   -0.189271    0.719024
    C   -0.428373    0.936433    0.016293
    H   -0.419398    2.033490   -0.193076
    C   -1.453657   -0.100746   -0.076081
    H   -2.247387   -0.085263   -0.914910

