%NProcShared=4
#p b3lyp/6-311++G(3df,2p) freq symmetry=Loose

 b3lyp opt

3 4
    C   -0.756646   -0.058029    0.274762
    C    0.350618   -1.037113   -0.145503
    C    1.437612   -0.102974   -0.037795
    H   -0.984294   -0.158658    1.401236
    H    2.263545   -0.059554   -0.851729
    H    2.278812   -0.237858    0.755856
    C   -2.114085   -0.008210   -0.278951
    C    0.420354    0.946765    0.020648
    H    0.414826    2.013436   -0.304335

