%NProcShared=4
#p b3lyp/6-311++G(3df,2p) freq symmetry=Loose

 b3lyp opt

3 4
    C   -2.322536    0.599646    0.002334
    C   -1.384950   -0.278540   -0.000056
    C    0.018706   -0.576400   -0.001316
    H   -2.195411   -1.141738   -0.001441
    H    0.257504   -1.654171   -0.001339
    C    1.137886    0.428552   -0.002237
    H    1.091971    1.176266    0.850103
    H    1.098541    1.162890   -0.867175
    C    2.508794   -0.097133    0.004584

