%NProcShared=4
#p b3lyp/6-311++G(3df,2p) freq symmetry=Loose

 b3lyp opt

2 1
    C    0.754421   -0.002054   -0.027361
    C    1.408095   -1.196980    0.118881
    C    1.433887    1.168357    0.185852
    C   -1.803917   -0.021384    0.415536
    H   -2.828629   -0.008983    0.024748
    H   -1.682746   -0.067978    1.502075
    C   -0.736716    0.034157   -0.532783
    H   -0.908538   -0.744690   -1.312504
    H   -0.915025    0.933752   -1.172857

