%NProcShared=4
#p b3lyp/6-311++G(3df,2p) freq symmetry=Loose

 b3lyp opt

3 2
    C   -0.368657    1.060207    0.017206
    H   -0.592807    1.646260    0.959191
    H   -0.624243    1.736979   -0.844941
    C   -1.279731   -0.256842   -0.008276
    H   -2.397075   -0.337876   -0.000363
    C   -0.222621   -1.142586   -0.040281
    C    1.062736   -0.941938    0.052321
    C    1.076767    0.574732   -0.019351
    H    2.003159    1.193205   -0.123602

