%NProcShared=4
#p b3lyp/6-311++G(3df,2p) freq symmetry=Loose

 b3lyp opt

1 2
    C    0.939476    0.745574    0.000000
    H    1.998311    0.489185    0.000000
    C    0.527353    2.000744    0.000000
    H    0.938555    2.998987    0.000000
    C    0.000000   -0.322500    0.000000
    C   -0.279156   -1.669745    0.000000
    H    0.058840   -2.694180    0.000000
    C   -1.294369   -0.787474    0.000000
    H   -2.355529   -0.593588    0.000000

