%NProcShared=1
#p b3lyp/6-311++G(3df,2p) freq symmetry=Loose

 b3lyp opt

2 1
C -1.309570410 -0.914836418 -0.000000000
C -0.884315295  0.323855916 -0.000000000
C -0.000190218 -0.941745913  0.000000000
C  1.245947844 -0.231474215  0.000000000
H  1.835506868 -0.273449585  0.926903000
H  1.835506868 -0.273449585 -0.926903000
C  0.211351156  1.249523773 -0.000000000
H  0.374789667  1.817528728  0.926903000
H  0.374789667  1.817528728 -0.926903000

