%NProcShared=4
#p b3lyp/6-311++G(3df,2p) freq IOp(2/17=3) IOp(2/18=3)

 b3lyp opt

3 2
C -1.005746001  0.619909995 -0.000099559
H -3.134570006  1.040845970 -0.000095467
C -2.085368005  1.443169975 -0.000197927
H -1.982501016  2.561802924 -0.000385735
C -0.001043996 -0.156107981 -0.000006389
C  2.516207999 -0.819019006  0.000015979
C  1.076432004 -1.090864980  0.000110418
H  1.053103775 -1.796731501 -0.919739512
H  1.053167239 -1.796428430  0.920194445

