%NProcShared=4
#p b3lyp/6-311++G(3df,2p) freq IOp(2/17=3) IOp(2/18=3)

 b3lyp opt

3 4
C -1.115493971 -0.335696009 -0.000135447
C -2.412513950  0.265907984 -0.000331037
H -1.298537050 -1.460577984 -0.000112035
H -2.967949549  0.441816840  0.956517684
H -2.967698374  0.441736135 -0.957340349
C  0.172144990  0.156935003  0.000012769
C  1.514302973 -0.138284991  0.000201363
H  1.915835999 -1.244983000  0.000300729
C  2.727951955  0.354807014  0.000339849

