%NProcShared=4
#p b3lyp/6-311++G(3df,2p) freq symmetry=Loose

 b3lyp opt

1 2
    C    1.272613    0.098501   -0.004366
    C   -1.109751    0.141811   -0.010827
    C    0.087813    0.793234   -0.026459
    H    0.108926    1.880604   -0.056795
    C   -2.240649   -0.446327    0.003341
    H   -2.745509   -0.681415    0.939958
    H   -2.741183   -0.734110   -0.920809
    C    2.340218   -0.496670    0.014758
    H    3.273630   -1.019018    0.031657

