%NProcShared=1
#p b3lyp/6-311++G(3df,2p) freq symmetry=Loose

 b3lyp opt

2 1
C  0.000954731 -1.093059957 -0.510060001
H  1.887172345 -0.980897772  0.713968966
C  1.059276847 -0.497054049  0.180757104
C -0.692671611  0.919872943 -0.006739767
H -1.392216457  1.725550748 -0.227930936
C -1.058399999 -0.498926018  0.180786897
H -1.885423790 -0.984232645  0.714022041
C  0.691035397  0.921096103 -0.006759234
H  1.389148531  1.728009400 -0.227970066

