%NProcShared=4
#p b3lyp/6-311++G(3df,2p) freq symmetry=Loose

 b3lyp opt

1 4
    C    0.501305   -0.174332    0.466851
    C   -1.682593   -0.096403   -0.117865
    C   -0.590555   -0.910731   -0.261232
    H    0.555396   -0.395475    1.527493
    C    1.742116    0.065033   -0.241465
    H    1.747505    0.290106   -1.298696
    H    2.682168   -0.031245    0.282419
    C   -0.708845    0.832184    0.112326
    H   -0.553631    1.842107   -0.262904

