%NProcShared=4
#p b3lyp/6-311++G(3df,2p) freq symmetry=Loose

 b3lyp opt

0 3
    C    0.978406    0.113980    0.566180
    H    1.552866    0.075860    1.474946
    C    0.846845   -0.267021   -0.787346
    C   -0.116552   -1.027768    0.002102
    H   -1.721800    0.061087    1.125917
    C   -0.068390    0.881956   -0.152776
    H   -0.025995    1.886618   -0.557521
    C   -1.268681   -0.022123    0.137323
    H   -2.034836   -0.097715   -0.636243

