%NProcShared=4
#p b3lyp/6-311++G(3df,2p) freq

 b3lyp opt

0 2
C -0.251522578 -0.139271164 -0.507090195
C  1.006131538 -0.582130105  0.098836744
C -1.358025030  0.482177999 -0.204521783
H -1.545322712  0.853522954  0.806146722
H -2.143915926  0.662822658 -0.929558949
H  1.120839451 -1.665690605  0.028421333
H  1.048295363 -0.307676467  1.162052010
H  1.866976665 -0.129733290 -0.397653317

