%NProcShared=4
#p b3lyp/6-311++G(3df,2p) freq

 b3lyp opt

1 3
C  0.055825735  0.369769392 -0.275218514
C  0.920641590 -0.736749322  0.067772673
C -1.114201583  0.251147966 -1.010862886
H -1.896236938  0.905610547 -1.379211728
H  0.336203979  1.371702085  0.064721261
H  0.596957401 -1.706339673 -0.293220243
H  1.946889367 -0.498523075 -0.271707675
H  1.068200279 -0.740006312  1.164768105

