%NProcShared=4
#p b3lyp/6-311++G(3df,2p) freq

 b3lyp opt

0 4
C -0.849151920  0.987238033  0.228907111
C -0.364097766 -0.321499669 -0.177991978
C  1.029368639 -0.702214414 -0.342145669
H  1.537295884 -0.604295654 -1.296535229
H -1.088092225  1.756854106 -0.498441659
H  1.602039837 -1.130895047  0.474382479
H -1.023348272  1.230254713  1.272476049
H -1.116693661 -1.090342523 -0.379100220

