%NProcShared=4
#p b3lyp/6-311++G(3df,2p) freq

 b3lyp opt

1 1
C -0.794605848  0.857513500  0.287798506
C -0.348990626 -0.206368471 -0.464584837
C  0.920446887 -0.689244146 -0.236642969
H  1.321794395 -1.524683100 -0.800034445
H -1.785118139  1.277438135  0.150098857
H  1.562509005 -0.246810651  0.517727247
H -0.165190892  1.311316946  1.046002404
H -0.983023332 -0.653753923 -1.219279462

