%NProcShared=4
#p b3lyp/6-311++G(3df,2p) freq

 b3lyp opt

0 4
    C   -0.169587   -0.204187   -0.756617
    C    1.032013   -0.434377    0.054635
    C   -1.488111    0.307201   -0.284745
    H   -2.140958   -0.358404    0.276961
    H   -1.589511    1.365178   -0.049894
    H    0.858292   -1.172696    0.851416
    H    1.394031    0.489161    0.530168
    H    1.847639   -0.817132   -0.565491

