%NProcShared=4
#p b3lyp/6-311++G(3df,2p) freq

 b3lyp opt

1 3
C  1.280246968 -0.024126372 -0.017012091
C -1.079435878  0.921714307 -0.460510314
C -0.110501310  0.123695153  0.190060364
H -0.531677261 -0.586149870  0.917101312
H  1.931597129 -0.311463448  0.799892202
H -1.966658009  1.251089035  0.067222034
H -1.002870133  1.128319855 -1.525175305
H  1.701882914  0.044163370 -1.016821747

