%NProcShared=4
#p b3lyp/6-311++G(3df,2p) freq

 b3lyp opt

0 1
C -0.126309117  0.592946737  0.608199343
C  0.252683050 -0.534847737 -0.350020343
H -0.624026346 -0.930798641 -0.864756541
H  0.725017745 -1.364080834  0.178772851
H  0.750400279  0.988897641  1.122935541
H  0.953033674 -0.190420747 -1.112404033
H -0.598643811  1.422179834  0.079406149
H -0.826659740  0.248519747  1.370583033

