%NProcShared=4
#p b3lyp/6-311++G(3df,2p) freq

 b3lyp opt

0 1
    C    1.158574   -0.766789    0.574999
    C   -1.025909    0.303416   -0.042452
    C   -0.287672   -0.436331    0.775563
    H    1.550062   -0.317278   -0.337615
    H    1.761995   -0.414394    1.415575
    H   -0.749788   -0.845753    1.669686
    H    1.309281   -1.847860    0.515152
    H   -0.613360    0.734355   -0.947293
    H   -2.069073    0.505712    0.160439

