%NProcShared=4
#p b3lyp/6-311++G(3df,2p) freq

 b3lyp opt

1 2
    C    1.161604   -0.723084    0.542548
    C   -1.163953    0.014215   -0.105073
    C   -0.122317   -0.134726    0.835477
    H    1.953722   -0.003707    0.825382
    H    1.360650   -1.533974    1.267450
    H   -0.304986    0.219977    1.846686
    H    1.295982   -1.068085   -0.477512
    H   -1.031140   -0.299829   -1.134120
    H   -2.115452    0.444290    0.183216

