%NProcShared=4
#p b3lyp/6-311++G(3df,2p) freq symmetry=Loose

 b3lyp opt

2 2
    H    0.000000    0.000000   -3.509295
    C    0.000000    0.000000   -2.417072
    C    0.000000    0.000000   -1.171569
    C    0.000000    0.000000    0.114563
    C    0.000000    0.000000    1.406242
    C    0.000000    0.000000    2.652719

