%NProcShared=1
#p b3lyp/6-311++G(3df,2p) freq symmetry=Loose

 b3lyp opt

2 2
C -1.095604428  0.631126395  0.252661580
C  0.231051095  0.830207888 -0.192084322
C  1.325443552  0.000406304 -0.001959468
C -1.095884872 -0.631559730 -0.250757837
C  0.231938648 -0.829958225  0.190796207
H  2.421928056  0.000688430 -0.003277927

