%NProcShared=4
#p b3lyp/6-311++G(3df,2p) freq symmetry=Loose

 b3lyp opt

0 4
    C    1.005108    1.631854   -0.000001
    C   -0.089399    0.718665   -0.000002
    C   -0.089170   -0.551723    0.876718
    C   -0.566386   -1.461799   -0.000000
    C   -0.089167   -0.551721   -0.876716
    H   -1.024997    1.290804    0.000002

