%NProcShared=4
#p b3lyp/6-311++G(3df,2p) freq symmetry=Loose

 b3lyp opt

1 3
    H    0.000000    0.000000   -3.482149
    C    0.000000    0.000000   -2.410308
    C    0.000000    0.000000   -1.179144
    C    0.000000    0.000000    0.117057
    C    0.000000    0.000000    1.404883
    C    0.000000    0.000000    2.647871

