%NProcShared=1
#p b3lyp/6-311++G(3df,2p) freq symmetry=Loose

 b3lyp opt

3 1
H -0.878414000 -1.626101000 -0.001065000
C -0.729151000 -0.503373000 -0.000250000
C  0.555111023  0.070516903 -0.000044090
C  1.636483761 -0.998633973 -0.001033593
C  0.851138190  1.550413185  0.001012866
C -2.167179973  0.152092885  0.000491817

