%NProcShared=4
#p b3lyp/6-311++G(3df,2p) freq symmetry=Loose

 b3lyp opt

0 2
    H    2.252733   -0.894519    0.000000
    C    1.182101   -1.009373    0.000000
    C    0.000000   -0.242977    0.000000
    C   -0.544706    0.956614    0.000000
    C   -1.046715    2.128932    0.000000
    C    0.033864   -1.684110    0.000000

