%NProcShared=4
#p b3lyp/6-311++G(3df,2p) freq symmetry=Loose

 b3lyp opt

2 2
    C    0.000000    0.000000    2.165958
    C    0.000000    0.000000    0.714787
    C    0.000000    0.822174   -0.436323
    C    0.000000    0.000000   -1.564698
    C    0.000000   -0.822174   -0.436323
    H    0.000000    0.000000   -2.660415

