%NProcShared=4
#p b3lyp/6-311++G(3df,2p) freq symmetry=Loose

 b3lyp opt

3 3
    H    0.856808    0.036372    1.384891
    C    0.588965    0.011916    0.243735
    C   -0.855588   -0.149045    0.056491
    C   -2.118683   -0.251594   -0.096959
    C    0.695337    1.512206   -0.198812
    C    1.548489   -1.128160   -0.236423

