%NProcShared=4
#p b3lyp/6-311++G(3df,2p) freq symmetry=Loose

 b3lyp opt

1 1
    C    0.704134    0.703028    0.163974
    C    1.233093   -0.541677   -0.214056
    C   -1.344154   -0.310870    0.239959
    C   -0.725106    0.696517   -0.438741
    C   -0.033799   -0.781851    0.092069
    H    0.994994    1.409120    0.940773

