%NProcShared=4
#p b3lyp/6-311++G(3df,2p) freq symmetry=Loose

 b3lyp opt

2 2
    H   -0.998430   -1.570716   -0.085033
    C   -0.812296   -0.470266   -0.076569
    C    0.555471    0.051691   -0.013786
    C    1.525211   -0.971155    0.052683
    C    0.913042    1.412961   -0.015374
    C   -2.015170    0.238544    0.066827

