%NProcShared=4
#p b3lyp/6-311++G(3df,2p) freq symmetry=Loose

 b3lyp opt

0 2
    H    2.238110   -0.780296   -0.062375
    C    1.275235   -0.338490    0.105971
    C    0.658689    0.876235   -0.131083
    C   -0.713842    0.667735    0.132645
    C   -1.525197   -0.376853   -0.042931
    C   -0.067903   -0.698578   -0.054206

