%NProcShared=4
#p b3lyp/6-311++G(3df,2p) freq symmetry=Loose

 b3lyp opt

2 4
    C    0.000000    0.000000    2.098205
    C    0.000000    0.000000    0.732193
    C    0.000000    0.838961   -0.425278
    C    0.000000    0.000000   -1.540613
    C    0.000000   -0.838961   -0.425278
    H    0.000000    0.000000   -2.635368

