%NProcShared=4
#p b3lyp/6-311++G(3df,2p) freq symmetry=Loose

 b3lyp opt

0 4
    H   -1.371395   -0.053768    1.465819
    C   -1.082784   -0.014820    0.412593
    C    0.314699   -0.004149    0.119956
    C    1.499971   -0.672964   -0.139103
    C    1.499742    0.681263   -0.092716
    C   -2.003062    0.019631   -0.545033

