%NProcShared=4
#p b3lyp/6-311++G(3df,2p) freq symmetry=Loose

 b3lyp opt

3 3
    C    1.023332    1.834190    0.000000
    C   -0.194103    0.744673    0.000000
    C   -0.194342   -0.556718    0.797519
    C   -0.246904   -1.688730    0.000000
    C   -0.194342   -0.556718   -0.797519
    H   -1.162628    1.337975    0.000000

