%NProcShared=1
#p b3lyp/6-311++G(3df,2p) freq symmetry=Loose

 b3lyp opt

1 3
C -1.449601000 -0.765332000 -0.000265000
C -1.459619000  0.568823000  0.000054000
C -0.228565984 -0.125172943 -0.000031619
C  1.124333031 -0.033114886  0.000079079
C  2.330388958  0.095497845  0.000188914
H -1.901615054  1.555788803  0.000261512

