%NProcShared=1
#p b3lyp/6-311++G(3df,2p) freq symmetry=Loose

 b3lyp opt

1 1
H  0.000502319  2.072261125 -0.000000000
C  0.000235730  0.989603934 -0.000000000
C  0.960541363 -0.092356529  0.000000000
C -0.000149624 -0.575370971  1.061167000
C -0.000149624 -0.575370971 -1.061167000
C -0.960602622 -0.091883474 -0.000000000

