%NProcShared=1
#p b3lyp/6-311++G(3df,2p) freq symmetry=Loose

 b3lyp opt

1 3
C  1.116540441  0.151798453 -0.009353961
C -0.000832220 -0.066653658 -0.949702229
C -1.114674559  0.164671453 -0.008244961
C  0.005521349  0.908885681  0.509324489
C -0.004755955 -0.856207202  0.321014724
H -0.010038659 -1.814972720  0.821772249

