%NProcShared=4
#p b3lyp/6-311++G(3df,2p) freq symmetry=Loose

 b3lyp opt

2 4
    C   -1.426076   -0.832556    0.000004
    C   -1.511007    0.539548   -0.000015
    C   -0.265128   -0.112850    0.000002
    C    1.128472    0.003144    0.000000
    C    2.378362    0.130178   -0.000000
    H   -2.045435    1.494869   -0.000025

