%NProcShared=4
#p b3lyp/6-311++G(3df,2p) freq symmetry=Loose

 b3lyp opt

2 4
    C    0.010106    1.924792    0.000000
    C    0.000000    0.563698    0.000000
    C   -0.793218   -0.639984    0.000000
    C    0.042364   -1.724570    0.000000
    C    0.830188   -0.603342    0.000000
    H   -0.536642    2.876435    0.000000

