%NProcShared=4
#p b3lyp/6-311++G(3df,2p) freq IOp(2/17=3) IOp(2/18=3)

 b3lyp opt

0 1
    O   -3.371784   -1.054765   -0.000000
    C    1.242145    0.733595   -0.000000
    C    0.238219   -0.368318    0.000000
    C   -1.077687   -0.199162    0.000000
    C   -2.247321   -0.740877    0.000000
    H    1.894877    0.646591    0.874009
    H    1.894877    0.646591   -0.874009
    H    0.769652    1.712434    0.000000
    H    0.657223   -1.376190    0.000000

