%NProcShared=4
#p b3lyp/6-311++G(3df,2p) freq IOp(2/17=3) IOp(2/18=3)

 b3lyp opt

1 2
    O    0.935444    1.416980    0.000000
    C    0.323791    0.262662   -0.000000
    C    1.005257   -0.970490   -0.000000
    C   -1.072425    0.296158    0.000000
    C   -2.279621    0.276547    0.000000
    H    2.087831   -1.013488    0.000000
    H    0.443737   -1.893272    0.000000
    H    1.904840    1.353008    0.000000
    H   -3.348854    0.271995   -0.000000

