%NProcShared=4
#p b3lyp/6-311++G(3df,2p) freq IOp(2/17=3) IOp(2/18=3)

 b3lyp opt

0 1
    C    0.895018    1.538837   -0.382507
    C   -0.470991   -0.587635    0.275742
    C    0.319132    0.501360   -0.142347
    H    0.548265   -1.701936   -0.931995
    H    1.397174    2.452400   -0.589544
    O   -0.184840   -1.737258   -0.285380

