%NProcShared=4
#p b3lyp/6-311++G(3df,2p) freq IOp(2/17=3) IOp(2/18=3)

 b3lyp opt

1 4
    C   -1.873195    0.888826    0.216543
    C   -0.873777    0.359984   -0.163433
    C    1.532845    0.215066    0.171069
    H    0.266727   -1.182057   -0.721980
    H    2.174091    0.886351   -0.401593
    O    0.308450   -0.245390   -0.419816

