%NProcShared=4
#p b3lyp/6-311++G(3df,2p) freq IOp(2/17=3) IOp(2/18=3)

 b3lyp opt

1 2
    C    1.193463    0.914486   -0.330548
    C   -1.139495   -0.562000    0.172335
    C   -1.551227    0.452631   -0.600710
    C   -0.250174    0.442463   -0.224065
    H   -1.257793   -1.483938    0.727235
    H    1.602321    1.483867    0.514607
    O    1.750001    0.619496   -1.337137

