%NProcShared=4
#p b3lyp/6-311++G(3df,2p) freq IOp(2/17=3) IOp(2/18=3)

 b3lyp opt

1 2
C -0.601634001  0.892726080  0.098788816
C  1.054572560 -0.523003026 -0.076904218
O  0.758947331  0.807272843  0.015084901
C -0.161229335 -1.219793853 -0.045607843
C -1.101563455 -0.415994125  0.054144300
H -1.030026948  1.880645836  0.179214388
H  2.097413418 -0.792697247 -0.152549474

