%NProcShared=4
#p b3lyp/6-311++G(3df,2p) freq IOp(2/17=3) IOp(2/18=3)

 b3lyp opt

0 4
    C    1.284345   -0.395387    0.135771
    C    0.077622    0.540103    0.012131
    H    0.101978    0.986010   -0.984051
    H    0.207506    1.320252    0.771557
    H   -1.252546   -0.446796    1.027841
    O   -1.155365   -0.108446    0.131395

