%NProcShared=4
#p b3lyp/6-311++G(3df,2p) freq IOp(2/17=3) IOp(2/18=3)

 b3lyp opt

0 4
    C    0.443968    0.277648   -0.414559
    C    0.974842   -1.056852   -0.075841
    H    0.933196   -1.414708    0.950353
    H    1.066596   -1.810213   -0.853544
    H   -1.338443    0.782604    0.135540
    O   -0.865049    0.462981   -0.649324

