%NProcShared=4
#p b3lyp/6-311++G(3df,2p) freq IOp(2/17=3) IOp(2/18=3)

 b3lyp opt

1 1
    C   -0.157876    1.900366    0.000000
    C    0.103654    0.721644    0.000000
    C    0.486678   -0.605052    0.000000
    H   -0.401163    2.943475   -0.000000
    H   -1.259167   -1.366320   -0.000000
    H    1.538954   -0.884057   -0.000000
    O   -0.309404   -1.597648   -0.000000

