%NProcShared=4
#p b3lyp/6-311++G(3df,2p) freq IOp(2/17=3) IOp(2/18=3)

 b3lyp opt

1 1
    C    2.074514   -0.609279    0.217960
    C    1.005381   -0.079845    0.403353
    C   -0.194186    0.538017    0.696710
    H    3.020111   -1.080508    0.041695
    H   -0.973094    0.399534   -1.035692
    H   -0.401149    0.912297    1.697797
    O   -1.141586    0.728974   -0.130907

