%NProcShared=4
#p b3lyp/6-311++G(3df,2p) freq IOp(2/17=3) IOp(2/18=3)

 b3lyp opt

1 1
    C   -0.694808    0.850524    0.000100
    C    0.051071   -1.030554    0.236338
    O   -1.094948   -0.427037   -0.108262
    C    1.213468   -0.385498   -0.133364
    C    0.717536    0.916321    0.029302
    H   -1.454787    1.585692    0.226620
    H    2.225622   -0.751296   -0.182472
    H    1.292180    1.802844    0.257884

