%NProcShared=4
#p b3lyp/6-311++G(3df,2p) freq IOp(2/17=3) IOp(2/18=3)

 b3lyp opt

0 2
    C    0.819611   -1.004402   -0.000000
    C   -0.002861    1.097511    0.000000
    O    1.122666    0.357004   -0.000000
    C   -1.131258    0.286585   -0.000000
    C   -0.644315   -1.004464    0.000000
    H    0.111170    2.170624    0.000000
    H   -2.151098    0.633495   -0.000000
    H   -1.223297   -1.914063    0.000000

