%NProcShared=4
#p b3lyp/6-311++G(3df,2p) freq IOp(2/17=3) IOp(2/18=3)

 b3lyp opt

0 1
    C    0.427776   -0.468921    0.017057
    C   -1.031039   -0.612909   -0.243658
    H   -1.438478   -1.274734    0.526095
    H    1.643579    0.910241    0.316568
    H   -1.144473   -1.167306   -1.179720
    H   -1.597914    0.322839   -0.282289
    O    0.698430    0.812479    0.145419

