%NProcShared=4
#p b3lyp/6-311++G(3df,2p) freq IOp(2/17=3) IOp(2/18=3)

 b3lyp opt

1 4
    C   -0.981231   -1.251206    0.491445
    C    0.677829    0.608564    0.748182
    C   -0.699625    0.070389    0.430971
    H    0.760310    1.698574    0.898313
    H    1.221704    0.135022    1.586683
    H   -0.548424   -2.176102    0.849374
    H   -1.406910    0.758475   -0.026900
    O    1.246506    0.234507   -0.427107

