%NProcShared=4
#p b3lyp/6-311++G(3df,2p) freq IOp(2/17=3) IOp(2/18=3)

 b3lyp opt

1 2
    C   -0.887930    0.015941    0.343722
    C    2.126758   -0.505066   -0.041686
    O   -1.354432   -0.987249    0.524280
    C    1.363209    0.534860   -0.045655
    C    0.022381    1.128645    0.085265
    H   -0.065911    1.831780    0.923145
    H    1.759466   -1.519735    0.125331
    H    3.197109   -0.412601   -0.209778
    H   -0.323201    1.636102   -0.824287

