%NProcShared=4
#p b3lyp/6-311++G(3df,2p) freq IOp(2/17=3) IOp(2/18=3)

 b3lyp opt

1 2
    O    0.074741   -0.346233    0.000409
    C    1.095230    0.558637   -0.000192
    C    2.347235    0.060867   -0.000012
    C   -1.152183   -0.014322    0.000322
    C   -2.344309    0.201070    0.000299
    H    0.804574    1.600449   -0.000763
    H    3.188275    0.739463   -0.000469
    H    2.528476   -1.005699    0.000583
    H   -3.392835    0.407069    0.000267

