%NProcShared=4
#p b3lyp/6-311++G(3df,2p) freq IOp(2/17=3) IOp(2/18=3)

 b3lyp opt

0 1
    C    0.177258   -0.514169    0.833972
    C    0.388360    2.033350   -1.618298
    O   -0.049510   -1.678626    1.480138
    C    0.175861    0.985021   -1.067178
    C   -0.089106   -0.262090   -0.454351
    H    0.614315    0.224583    1.491131
    H   -0.438849   -2.325959    0.881242
    H    0.578970    2.960404   -2.098388
    H   -0.529022   -1.038803   -1.073853

