%NProcShared=4
#p b3lyp/6-311++G(3df,2p) freq IOp(2/17=3) IOp(2/18=3)

 b3lyp opt

0 1
    C    3.125480    3.333131    0.896479
    C    3.194076    1.847134    0.647097
    O    4.188041    1.285105    0.247097
    C    1.971532    1.103842    0.919251
    C    0.955661    0.506232    1.148488
    H    4.084563    3.788436    0.663907
    H    2.861514    3.523972    1.938475
    H    2.339765    3.777852    0.282692
    H    0.065677   -0.040009    1.346040

