%NProcShared=4
#p b3lyp/6-311++G(3df,2p) freq IOp(2/17=3) IOp(2/18=3)

 b3lyp opt

1 2
    C   -0.000000    1.078808    0.364893
    C    0.000000   -1.078808    0.364893
    O    0.000000    0.000000    1.167986
    C   -0.000000   -0.688584   -0.989845
    C    0.000000    0.688584   -0.989845
    H   -0.000000    2.042961    0.851033
    H    0.000000   -2.042961    0.851033
    H   -0.000000   -1.359767   -1.833191
    H    0.000000    1.359767   -1.833191

