%NProcShared=4
#p b3lyp/6-311++G(3df,2p) freq IOp(2/17=3) IOp(2/18=3)

 b3lyp opt

1 2
    C   -0.403828    1.056340   -0.000000
    C   -0.073252   -1.518686   -0.656597
    O    0.129865    2.094170    0.000000
    C   -0.073252   -1.518686    0.656597
    C    0.486453   -0.351330   -0.000000
    H   -1.494133    0.886241    0.000000
    H   -0.239193   -2.016866    1.597832
    H   -0.239193   -2.016866   -1.597832
    H    1.522140   -0.015253   -0.000000

