%NProcShared=4
#p b3lyp/6-311++G(3df,2p) freq IOp(2/17=3) IOp(2/18=3)

 b3lyp opt

1 1
    C   -1.064663    0.082078    0.470452
    C    1.023447    0.422763   -1.069821
    C    1.509640   -0.531034   -0.141657
    C    0.169134    0.028241   -0.121866
    H    1.145193    1.063819   -1.933393
    O   -2.071675    0.120029    0.961386

