%NProcShared=4
#p b3lyp/6-311++G(3df,2p) freq IOp(2/17=3) IOp(2/18=3)

 b3lyp opt

1 1
    C   -0.673781    0.021232    0.652211
    C    0.242227    0.348669   -0.942412
    C    1.741348   -1.169524    0.526880
    C    0.760420   -0.360083    0.141858
    H    0.646492    1.068034   -1.653921
    O   -1.064686    0.284928   -0.655629

