%NProcShared=4
#p b3lyp/6-311++G(3df,2p) freq IOp(2/17=3) IOp(2/18=3)

 b3lyp opt

1 1
    C   -0.132525    0.695270   -0.189346
    C    0.345469   -0.938161    1.022028
    C    0.987321    0.145616    0.537412
    C   -0.765662    1.753415   -0.716786
    H    0.349227   -1.830075    1.631191
    O   -0.487163   -0.711351   -0.083326

