%NProcShared=4
#p b3lyp/6-311++G(3df,2p) freq

 b3lyp opt

2 1
    S    0.633603   -0.016858   -0.391532
    C   -1.181219    0.353900   -0.289770
    H   -1.768365   -0.232162   -1.077560
    H    0.935246    0.274199    0.908581
    H   -1.573381    1.028907   -1.161937
    H   -1.363704    1.440121    0.022930
    H   -1.779666   -0.052997    0.552294
    H    0.539396   -1.364375   -0.187960

