%NProcShared=1
#p b3lyp/6-311++G(3df,2p) freq symmetry=Loose

 b3lyp opt

0 2
C -1.318999353  0.421493473 -0.399454369
N  1.539357856  0.189044000  1.992787777
C -1.311461974 -0.752218321 -1.258123583
C  0.025101951  0.178303587 -0.059855685
C  0.044342647 -0.246110527 -1.401712369
C  0.850590731  0.170536621  1.068205933

