%NProcShared=1
#p b3lyp/6-311++G(3df,2p) freq symmetry=Loose

 b3lyp opt

1 3
    C   -0.375664    0.052208   -0.464574
    C   -1.999288    0.265762   -2.460105
    C    1.157310   -0.154750    1.424971
    C    1.996657   -0.271618    2.463227
    C   -1.168650    0.159712   -1.442483
    N    0.389637   -0.051314    0.478964

