%NProcShared=1
#p b3lyp/6-311++G(3df,2p) freq symmetry=Loose

 b3lyp opt

1 3
    C    1.583166   -1.541522   -0.085154
    C    1.322793   -0.208310   -0.012661
    C    0.242320   -1.316806   -0.040677
    C   -1.039610    1.010025    0.106372
    C   -0.064664    0.061925    0.035379
    N   -1.872184    1.819469    0.166624

