%NProcShared=1
#p b3lyp/6-311++G(3df,2p) freq symmetry=Loose

 b3lyp opt

0 2
C  1.648981794 -1.606165634 -0.089584911
C  1.297202903 -0.209825587 -0.011778805
C  0.242571400 -1.291419385 -0.039461972
C -1.055910309  1.026260722  0.107227949
C -0.075122167  0.071748506  0.035864023
N -1.885983961  1.834096182  0.167625615

