%NProcShared=1
#p b3lyp/6-311++G(3df,2p) freq symmetry=Loose

 b3lyp opt

1 3
    C    1.184627    0.229444   -0.284182
    C   -0.540302   -1.446647    0.941061
    C   -0.902342   -0.334137    0.280278
    C    0.515328   -0.778491    0.416633
    C   -0.777065    0.901920   -0.506263
    N    0.459391    1.212757   -0.825482

