%NProcShared=1
#p b3lyp/6-311++G(3df,2p) freq symmetry=Loose

 b3lyp opt

1 3
N -1.204789000  0.302934000 -0.270157000
C -0.058076000 -0.076914000  1.361494000
C -1.400535707  0.071205409  1.076278610
C  0.277180276  0.238594570 -0.498688176
C -2.511643460  0.342525906  0.025310606
C  1.008890891 -0.024071885  0.653618960

