%NProcShared=1
#p b3lyp/6-311++G(3df,2p) freq symmetry=Loose

 b3lyp opt

0 2
C -1.164840978  0.338718268 -0.481366078
C -0.101331008 -0.079406491  1.391400958
C -1.415158932  0.071039883  1.079565110
C  0.187574453  0.229535581 -0.410153976
C -2.390757237  0.312066808  0.140958354
N  0.995542886 -0.017678757  0.627453827

