%NProcShared=1
#p b3lyp/6-311++G(3df,2p) freq symmetry=Loose

 b3lyp opt

0 2
C -0.299585000  0.290033000 -0.089148000
C -1.604681000 -0.039960000 -0.157559000
C -0.009941222 -2.261375511  0.353506814
C -0.551332319 -1.078857623  0.110237811
C  1.607048881  1.910503003 -0.174611433
N  0.718828565  1.138082255 -0.131945451

