%NProcShared=1
#p b3lyp/6-311++G(3df,2p) freq symmetry=Loose

 b3lyp opt

0 2
    C    0.422046   -0.812406    0.005177
    C   -0.543585    0.339270   -0.585605
    C   -0.659921    0.716290    0.872948
    C   -1.035670   -0.987884   -0.269564
    C    0.745921    0.423516    0.835249
    N    0.921981    0.249328   -0.759373

