%NProcShared=1
#p b3lyp/6-311++G(3df,2p) freq symmetry=Loose

 b3lyp opt

1 3
C  1.083447000 -0.179909000 -0.404696000
C -1.834605000 -0.268654000  1.116951000
C  1.081856510  0.917421035 -1.150420268
C -0.645442322 -0.180069664  0.461189385
C -0.118762688  0.894237763 -0.533414338
N  0.451008715 -1.007285257  0.474879618

