%NProcShared=1
#p b3lyp/6-311++G(3df,2p) freq symmetry=Loose

 b3lyp opt

0 4
N -0.972746458  1.089748473  0.356722093
C -0.527736308 -0.283302055  0.574904502
C -0.126660714 -1.245841765 -0.423763785
C -0.095495585  1.246767618 -0.525046565
C  0.717019115 -0.026219214 -0.691966882
C  0.830802859 -0.770715636  0.613401288

