%NProcShared=1
#p b3lyp/6-311++G(3df,2p) freq symmetry=Loose

 b3lyp opt

1 3
N  1.563607000 -0.730547000  1.441094000
C -2.431076000  0.051330000 -1.721469000
C  0.776152362  0.078024475  0.478493129
C -0.286783373  0.080903691 -0.256693026
C  1.984066916  0.394227413  1.148380523
C -1.322674905  0.104856420 -0.984133626

