%NProcShared=1
#p b3lyp/6-311++G(3df,2p) freq symmetry=Loose

 b3lyp opt

0 4
N  0.242108000  0.534358000 -0.077845000
C -0.646064000 -0.397698000 -0.009401000
C -1.147547653 -2.906334426  0.349592589
C -0.780529916 -1.661265554  0.182348452
C  1.422769761  2.776466861 -0.330929854
C  0.769606808  1.612890119 -0.203329188

