%NProcShared=1
#p b3lyp/6-311++G(3df,2p) freq symmetry=Loose

 b3lyp opt

0 4
C  0.489414000 -1.095302000 -0.715731000
C -1.087932000  0.124481000  0.104941000
N -0.630170163  1.098617696  0.766814243
C -0.884494670 -0.932724366 -0.610733978
C  0.709843017  0.888862332  0.629718312
C  1.254111844 -0.155815777 -0.076182783

