%NProcShared=1
#p b3lyp/6-311++G(3df,2p) freq symmetry=Loose

 b3lyp opt

0 4
    C   -0.000000   -0.000000    1.966027
    C    0.000000   -0.000000    0.670849
    C    0.000000    0.000000   -0.644108
    C    0.000000    0.000000   -1.898429
    C   -0.000000   -0.000000   -3.258023
    N    0.000000    0.000000    3.163683

