%NProcShared=1
#p b3lyp/6-311++G(3df,2p) freq symmetry=Loose

 b3lyp opt

0 4
    N   -1.165960    0.316819   -0.361143
    C   -0.046514   -0.118430    1.584431
    C   -1.351673    0.089355    0.954681
    C    0.280799    0.251366   -0.564764
    C   -2.491666    0.322678    0.121655
    C    0.886041   -0.007515    0.612997

