%NProcShared=1
#p b3lyp/6-311++G(3df,2p) freq symmetry=Loose

 b3lyp opt

0 2
    C   -1.256232    0.141647   -1.125198
    N    1.401134   -0.758628    1.507207
    C    1.896351    0.393641    1.299163
    C   -0.297960    0.010623   -0.276532
    C    0.670039   -0.066545    0.548603
    C   -2.216645    0.262258   -1.979741

