%NProcShared=1
#p b3lyp/6-311++G(3df,2p) freq symmetry=Loose

 b3lyp opt

0 4
N  0.610367199 -1.591759267 -0.132663885
C  1.154279219  0.673560078  0.112954734
C -1.157234249 -0.071551089 -0.361558495
C  1.981116631  1.416970328  0.696862576
C  0.207611081 -0.353065735 -0.115779616
C -2.400709915  0.004498397 -0.202649667

