%NProcShared=1
#p b3lyp/6-311++G(3df,2p) freq symmetry=Loose

 b3lyp opt

0 4
    C   -2.255487    1.864274    0.827320
    C    0.348078   -0.545964   -0.048627
    C   -0.274339    0.641043   -0.006986
    C    1.363582   -1.190436   -0.477642
    C    2.364983   -1.979094   -0.861351
    N   -1.337334    1.176043    0.475105

