%NProcShared=1
#p b3lyp/6-311++G(3df,2p) freq symmetry=Loose

 b3lyp opt

0 2
C -0.264134775  0.009275691 -0.298605700
C -1.966346164  0.064595246 -2.218273782
C  1.701953000  0.516654000  1.330148000
C  1.098600916 -0.610367252  1.830925183
C -1.113729330  0.036895303 -1.256744769
N  0.543688160 -0.017081990  0.612523916

