%NProcShared=1
#p b3lyp/6-311++G(3df,2p) freq symmetry=Loose

 b3lyp opt

1 1
    N    1.532261   -0.691309    1.399173
    C   -2.397499    0.146683   -1.747619
    C    0.775183   -0.026663    0.532049
    C   -0.317423   -0.019455   -0.225793
    C    2.013212    0.503197    1.111799
    C   -1.322441    0.066342   -0.963935

