%NProcShared=1
#p b3lyp/6-311++G(3df,2p) freq symmetry=Loose

 b3lyp opt

1 3
    C    0.530985   -0.890021   -0.068809
    C   -0.531185    0.391089   -0.708869
    N   -0.746358    0.588805    0.820469
    C   -0.973246   -0.762587   -0.003145
    C    0.630657    0.320753    0.842338
    C    0.939919    0.280075   -0.783153

