%NProcShared=1
#p b3lyp/6-311++G(3df,2p) freq symmetry=Loose

 b3lyp opt

1 3
N  1.433269000 -0.383863000 -0.479637000
C -1.858604000 -0.237641000  1.090135000
C  0.949701780  0.759796497 -0.917891644
C -0.712291843 -0.062875313  0.408987564
C -0.333776527  1.012054166 -0.422220888
C  0.539170590 -0.911777350  0.285047968

