%NProcShared=1
#p b3lyp/6-311++G(3df,2p) freq symmetry=Loose

 b3lyp opt

1 1
N -0.242410000  0.291814000 -0.084104000
C -1.602316000 -0.088474000 -0.149439000
C -0.044287862 -2.279975873  0.353447089
C -0.609871731 -1.082683208  0.105438448
C  1.648556651  2.022434239 -0.189060841
C  0.710665942  1.095309842 -0.125800696

