%NProcShared=1
#p b3lyp/6-311++G(3df,2p) freq symmetry=Loose

 b3lyp opt

1 3
    C   -0.024855   -1.741735   -1.265443
    C   -0.027274    0.105589    0.104045
    N   -0.028407    1.141513    0.872228
    C   -0.750637   -1.006085   -0.373299
    C   -0.019715    2.104935    1.583489
    C    0.701660   -0.676103   -0.822187

