%NProcShared=1
#p b3lyp/6-311++G(3df,2p) freq symmetry=Loose

 b3lyp opt

1 3
N  0.715851000 -1.563702000 -0.226753000
C  1.087644000  0.647080000  0.270955000
C -1.204107236 -0.140137771 -0.209962212
C  2.015547158  1.395772199  0.552298647
C  0.168404086 -0.351511118 -0.059518829
C -2.387995009  0.091123690 -0.329870606

