%NProcShared=1
#p b3lyp/6-311++G(3df,2p) freq symmetry=Loose

 b3lyp opt

0 4
    C    0.367774   -1.045148   -0.114990
    C   -0.670510    0.258779   -0.404923
    C   -0.499690    0.983054    0.877045
    C   -0.990027   -1.141908   -0.568399
    C    0.826200    0.660887    0.894423
    N    0.817025    0.212450   -0.584323

