%NProcShared=1
#p b3lyp/6-311++G(3df,2p) freq symmetry=Loose

 b3lyp opt

1 1
C  0.430832665 -0.912194089 -0.027328042
C -0.510131352  0.374848712 -0.504260733
C -0.644510847  0.955436085  0.949922061
C -0.956078986 -1.118228655 -0.300207236
C  0.616884669  0.326088747  0.719183014
N  0.913770730  0.302122458 -0.738502626

