%NProcShared=1
#p b3lyp/6-311++G(3df,2p) freq symmetry=Loose

 b3lyp opt

1 3
    C   -1.341124    0.387839   -0.356775
    C    1.529810    0.207790    1.965652
    C   -1.264821   -0.654595   -1.259478
    C    0.034159    0.150521   -0.028573
    C    0.063681   -0.300111   -1.389244
    N    0.807153    0.169641    1.010319

