%NProcShared=1
#p b3lyp/6-311++G(3df,2p) freq symmetry=Loose

 b3lyp opt

0 4
C -0.958188951  0.876410990  0.310523071
C -0.370316099 -0.464476827  0.657811434
C -0.543953873 -0.938604149 -0.752237825
C -0.050233944  1.145749414 -0.668319809
C  0.701438831 -0.146548316 -0.497619919
N  1.046428317 -0.462098096  0.854084184

