%NProcShared=1
#p b3lyp/6-311++G(3df,2p) freq symmetry=Loose

 b3lyp opt

0 2
    C    0.573248    0.182240   -1.440450
    C    0.517662    0.563248    0.187337
    C   -0.516081   -0.278313   -0.819569
    N    0.944578   -0.613580    0.924120
    C   -0.435540   -0.683560    0.593954
    C   -0.949962    0.717756    0.469512

