%NProcShared=1
#p b3lyp/6-311++G(3df,2p) freq symmetry=Loose

 b3lyp opt

1 3
C -0.942596244  0.855466403  0.347843733
C -0.371708793 -0.485941576  0.633847623
C -0.543215797 -0.935177693 -0.750351492
C -0.007295233  1.132840622 -0.660723545
C  0.683845509 -0.172904867 -0.504392920
N  1.006114907 -0.383860048  0.838052087

