%NProcShared=1
#p b3lyp/6-311++G(3df,2p) freq symmetry=Loose

 b3lyp opt

1 3
N -2.260132486 -1.814284180  1.178304734
C  2.339330674  1.820667427 -1.313183610
C  1.387619843  1.108056413 -0.714083288
C -0.451310710 -0.362466766  0.245645498
C  0.462147000  0.369340000 -0.228231000
C -1.408496073 -1.129855531  0.741043711

