%NProcShared=1
#p b3lyp/6-311++G(3df,2p) freq symmetry=Loose

 b3lyp opt

1 1
C  2.491053757  0.023725536  0.892862211
C -0.032662086 -0.105839297  0.092333943
C  1.210425382  0.002486651  0.896709400
C -0.030716569  0.069612305  1.708547834
C  3.808285710  0.045571483  0.888905059
N -1.090137452 -0.035667581  0.903620617

