%NProcShared=1
#p b3lyp/6-311++G(3df,2p) freq symmetry=Loose

 b3lyp opt

1 3
C -1.062139301 -0.033091248 -0.856978428
C  0.950998685 -0.934634162  0.581625828
C  1.175002418  0.093311169  1.477531337
C  0.132118995 -0.025315304 -0.158293665
C  1.057420685  0.923364838  0.379040828
N -2.056720128 -0.040719395 -1.449413057

