%NProcShared=1
#p b3lyp/6-311++G(3df,2p) freq symmetry=Loose

 b3lyp opt

1 1
C  0.553031000 -1.200565000 -0.269832000
C  0.239216000  1.439907000 -0.832698000
C -0.611300625  1.090191042  0.280380015
C  0.200069388  0.127095439 -0.325635217
C -1.508288829  1.132842918  1.309630544
N  0.872227770 -2.315186771 -0.249609865

