%NProcShared=1
#p b3lyp/6-311++G(3df,2p) freq symmetry=Loose

 b3lyp opt

0 2
C -0.940056925  0.893554144  0.330882850
C -0.374411592 -0.463899144  0.618953979
C -0.523665054 -0.989042972 -0.747410365
C -0.033246606  1.162609380 -0.646651988
C  0.663643015 -0.155903060 -0.500061234
N  1.032914996 -0.436885869  0.848526221

