%NProcShared=1
#p b3lyp/6-311++G(3df,2p) freq symmetry=Loose

 b3lyp opt

0 2
    C    0.609622   -0.099764   -0.839137
    N    1.040969    0.709249    0.381619
    C   -0.758270   -0.033034   -0.806986
    C    1.075371   -0.803451    0.385686
    C   -0.177667   -0.093271    0.673781
    C   -1.656120    0.208061    0.119940

