%NProcShared=1
#p b3lyp/6-311++G(3df,2p) freq symmetry=Loose

 b3lyp opt

1 1
    N   -0.987192    1.091116    0.389483
    C   -0.408184   -0.425411    0.507687
    C   -0.519262   -1.054553   -0.861220
    C   -0.052085    0.951302   -0.399607
    C    0.738338   -0.236303   -0.608590
    C    1.053559   -0.315718    0.876488

