%NProcShared=1
#p b3lyp/6-311++G(3df,2p) freq symmetry=Loose

 b3lyp opt

0 2
    C   -1.757274    1.146056   -0.531826
    C   -0.739004    0.445180   -0.139042
    C    1.507292   -0.311994   -1.296145
    C    0.572798   -0.164277   -0.385295
    C   -0.422982   -0.249528    1.209979
    N    0.691768   -0.767454    1.000062

