%NProcShared=1
#p b3lyp/6-311++G(3df,2p) freq symmetry=Loose

 b3lyp opt

1 3
    C    0.457979   -0.790787   -0.025806
    C   -0.635214    0.312138   -0.587673
    C   -0.583754    0.810840    0.783874
    C   -1.031999   -1.046311   -0.283634
    C    0.766824    0.332250    0.932209
    N    0.876935    0.309984   -0.720139

