%NProcShared=1
#p b3lyp/6-311++G(3df,2p) freq symmetry=Loose

 b3lyp opt

1 3
C -1.197909947  0.329243192 -0.416691102
C -0.060065735 -0.082159945  1.390395831
C -1.426470613  0.084837100  1.008505251
C  0.226676582  0.224461358 -0.397593818
C -2.462307930  0.319035362  0.130667147
N  1.031104980 -0.021143343  0.632573450

