%NProcShared=1
#p b3lyp/6-311++G(3df,2p) freq symmetry=Loose

 b3lyp opt

0 4
C -0.270087949 -0.857817717  0.757650968
C -0.173656692  1.071552887  0.477082182
C -0.509972512  0.249714174  1.500651384
C  0.135661478 -1.150345358 -0.487030668
C  0.241003181  0.957303047 -0.793524585
N  0.424218567 -0.213478885 -1.363479955

