%NProcShared=1
#p b3lyp/6-311++G(3df,2p) freq symmetry=Loose

 b3lyp opt

1 1
    C   -0.907438    0.472088   -0.057187
    C   -0.306929   -0.567045    0.804474
    C   -0.735411   -0.888507   -0.605382
    C    0.202038    1.354647   -0.433226
    C    0.582706   -0.131248   -0.601834
    N    0.990191   -0.229509    0.797418

