%NProcShared=1
#p b3lyp/6-311++G(3df,2p) freq symmetry=Loose

 b3lyp opt

0 2
    N    2.525815    0.032572    0.891938
    C    0.043007   -0.104772    0.146013
    C    1.218128   -0.001518    0.897031
    C    0.044675    0.060305    1.655390
    C    3.709643    0.058611    0.887643
    C   -1.185021   -0.045261    0.904977

