%NProcShared=1
#p b3lyp/6-311++G(3df,2p) freq symmetry=Loose

 b3lyp opt

0 2
C -0.315030225 -1.156924468  0.892918991
C -0.187409980  1.399388459  0.521768881
C -0.352069728  0.171158108  1.016535042
C  0.096813953 -1.060363849 -0.367431483
C  0.195159047  0.909549600 -0.653442474
N  0.409711657 -0.205965586 -1.318982106

