%NProcShared=1
#p b3lyp/6-311++G(3df,2p) freq symmetry=Loose

 b3lyp opt

0 2
    C    0.194551   -0.499524   -0.464366
    N   -1.052389    0.259733   -0.752155
    C   -0.628739    0.430720    0.705081
    C   -1.046848   -0.907327    0.205465
    C    0.736780    0.510185    0.636226
    C    1.647417    0.134327   -0.231419

