%NProcShared=1
#p b3lyp/6-311++G(3df,2p) freq symmetry=Loose

 b3lyp opt

1 3
C  1.086387000 -1.119273000 -0.047924000
C  1.274062000  0.220845000  0.213240000
C -1.369233543 -0.121895537 -0.234920274
C  1.932181886  1.382097003  0.512356830
C -0.039478014 -0.433443150 -0.093822583
N -2.488553853  0.150326158 -0.351950120

