%NProcShared=1
#p b3lyp/6-311++G(3df,2p) freq symmetry=Loose

 b3lyp opt

1 3
    N    0.720190   -0.014163   -1.034790
    C    0.504350    0.768669    0.298483
    C   -0.642502   -0.291978   -0.853192
    C    1.004771   -0.556633    0.439261
    C   -0.491847   -0.680352    0.608737
    C   -0.961062    0.662255    0.456377

