%NProcShared=1
#p b3lyp/6-311++G(3df,2p) freq symmetry=Loose

 b3lyp opt

1 3
    C   -2.244918    1.967514    0.797488
    C    0.471483   -0.384696   -0.171715
    C   -0.446649    0.410454    0.155850
    C    1.407233   -1.195147   -0.505495
    C    2.382627   -2.033767   -0.850092
    N   -1.360291    1.201507    0.481783

