%NProcShared=1
#p b3lyp/6-311++G(3df,2p) freq symmetry=Loose

 b3lyp opt

1 3
C  2.523785601  0.024257758  0.892874815
C -0.002503617 -0.102309335  0.119878041
C  1.188678248  0.002132604  0.896786564
C -0.000738445  0.067123701  1.680670034
C  3.748725933  0.044557245  0.889285845
N -1.101699760 -0.035823120  0.903497173

