%NProcShared=1
#p b3lyp/6-311++G(3df,2p) freq symmetry=Loose

 b3lyp opt

0 2
    N   -0.271435    0.009731   -0.307084
    C   -1.955455    0.064181   -2.205905
    C    1.681159    0.492514    1.332272
    C    1.104093   -0.585840    1.811679
    C   -1.096490    0.036321   -1.237304
    C    0.538160   -0.016937    0.606315

