%NProcShared=1
#p b3lyp/6-311++G(3df,2p) freq symmetry=Loose

 b3lyp opt

1 1
    C    1.650633   -1.606862   -0.088749
    C    1.301962   -0.171267   -0.010574
    C    0.204702   -1.297103   -0.039416
    C   -1.047436    1.017570    0.106930
    C   -0.061056    0.058116    0.034195
    N   -1.876985    1.824326    0.167498

