%NProcShared=1
#p b3lyp/6-311++G(3df,2p) freq symmetry=Loose

 b3lyp opt

1 1
    C   -0.452606    0.583981    0.000000
    C    2.003915   -0.331308   -0.000000
    C   -0.705546    1.904767   -0.000000
    C   -1.049232   -2.063539   -0.000000
    C   -0.572433   -0.806375    0.000000
    N    0.775901   -0.221390    0.000000

