%NProcShared=1
#p b3lyp/6-311++G(3df,2p) freq symmetry=Loose

 b3lyp opt

1 3
    N    1.012552   -1.087432   -0.053219
    C    1.261948    0.245402    0.215713
    C   -1.360599   -0.140775   -0.236932
    C    2.050194    1.315310    0.518073
    C   -0.021327   -0.298622   -0.067652
    C   -2.547403    0.044774   -0.379003

