%NProcShared=1
#p b3lyp/6-311++G(3df,2p) freq symmetry=Loose

 b3lyp opt

1 1
    C   -1.156685    0.336638   -0.473210
    C   -0.123327   -0.069050    1.343233
    C   -1.404771    0.071322    1.074058
    C    0.151435    0.224822   -0.370304
    C   -2.352313    0.308312    0.146486
    N    0.996688   -0.017766    0.627598

