%NProcShared=1
#p b3lyp/6-311++G(3df,2p) freq symmetry=Loose

 b3lyp opt

1 1
    N    0.184965   -1.822767   -0.363380
    C    0.651968    0.668140    0.218482
    C   -0.696191    0.418823   -0.011686
    C    1.685097    1.480450    0.517275
    C    0.533201   -0.725825   -0.088540
    C   -1.963696    0.059803   -0.275002

