%NProcShared=1
#p b3lyp/6-311++G(3df,2p) freq symmetry=Loose

 b3lyp opt

1 3
    C    1.693454    0.521402    1.421776
    C    0.791295    0.012045    0.305089
    C   -1.576745    0.115952   -0.434793
    C    2.086687   -0.238801    0.344806
    C    1.741546    1.235096    2.582995
    N   -0.436711    0.041555   -0.068826

