%NProcShared=1
#p b3lyp/6-311++G(3df,2p) freq symmetry=Loose

 b3lyp opt

0 4
    N    1.687706   -0.576338    1.446899
    C   -2.257605    0.386177   -1.775216
    C    0.704824   -0.078449    0.510339
    C   -0.425265   -0.400012   -0.102950
    C    1.866086    0.582033    0.969348
    C   -1.292454    0.065384   -0.942747

