%NProcShared=1
#p b3lyp/6-311++G(3df,2p) freq symmetry=Loose

 b3lyp opt

0 2
    C    0.574143   -1.204677   -0.292953
    C    0.244828    1.395834   -0.823650
    C   -0.642175    1.040576    0.333702
    C    0.204951    0.137467   -0.334884
    C   -1.526831    1.218672    1.300917
    N    0.890030   -2.313590   -0.270903

