%NProcShared=1
#p b3lyp/6-311++G(3df,2p) freq symmetry=Loose

 b3lyp opt

1 1
C -0.303974140 -1.131341226  0.859218564
C -0.179203232  1.364606931  0.496262920
C -0.356762795  0.173732972  1.030810221
C  0.094136667 -1.024897403 -0.358881200
C  0.189267010  0.878113548 -0.635613136
N  0.403710848 -0.203288706 -1.300443174

