%NProcShared=2
#p b3lyp/6-311++G(3df,2p) freq IOp(2/17=3) IOp(2/18=3)

 b3lyp opt

-1 4
    C    1.613667    1.247664   -0.119289
    C   -0.484281   -0.062587    0.127977
    C    0.188848    1.049545   -0.306321
    C   -1.141105   -1.013474    0.522669
    H   -1.766020   -1.813238    0.852991
    H   -0.359369    1.838826   -0.820290
    O    2.448648    0.544704    0.362427

