%NProcShared=4
#p b3lyp/6-311++G(3df,2p) freq IOp(2/17=3) IOp(2/18=3)

 b3lyp opt

-1 3
    C    0.041557   -0.189686   -0.501624
    C    0.934195   -1.126097   -0.244578
    H    1.957326   -1.025908   -0.589111
    H    0.673648   -2.021616    0.317204
    H   -1.583325    0.851171   -0.607536
    O   -1.224890   -0.008060   -0.241794

