%NProcShared=4
#p b3lyp/6-311++G(3df,2p) freq IOp(2/17=3) IOp(2/18=3)

 b3lyp opt

-1 4
    C    0.346912   -0.328879    0.011415
    C   -1.060029   -0.679698   -0.252801
    H   -1.501459   -1.317396    0.528660
    H    1.800061    0.905466    0.344701
    H   -1.202432   -1.208015   -1.208200
    H   -1.657422    0.236227   -0.297927
    O    0.832250    0.913984    0.173623

