%NProcShared=4
#p b3lyp/6-311++G(3df,2p) freq IOp(2/17=3) IOp(2/18=3)

 b3lyp opt

-1 2
    O    0.930726    1.443361   -0.000000
    C    0.268396    0.187517    0.000000
    C    1.047712   -0.972959    0.000000
    C   -1.105519    0.272372    0.000000
    C   -2.336770    0.326133    0.000000
    H    2.130046   -0.917020   -0.000000
    H    0.591670   -1.950319    0.000000
    H    1.868959    1.237774    0.000000
    H   -3.395217    0.373242   -0.000000

