%NProcShared=4
#p b3lyp/6-311++G(3df,2p) freq IOp(2/17=3) IOp(2/18=3)

 b3lyp opt

-1 2
    C   -0.967517    0.611981    0.000000
    C    0.325706   -1.311692   -0.000000
    O   -1.034521   -0.729978   -0.000000
    C    1.231659   -0.058219    0.000000
    C    0.275275    1.114189   -0.000000
    H   -1.914920    1.141762    0.000000
    H    1.914895   -0.048687    0.874181
    H    1.914895   -0.048687   -0.874181
    H    0.516237    2.169308   -0.000000

