%NProcShared=4
#p b3lyp/6-311++G(3df,2p) freq IOp(2/17=3) IOp(2/18=3)

 b3lyp opt

-1 2
    O    1.878216   -1.296303    0.005526
    C    0.448125    0.849157   -0.025559
    C    0.786751   -0.689015    0.005675
    C   -1.005740    0.377331    0.005026
    C   -0.601834   -0.983754    0.030849
    H    0.783493    1.363950   -0.934780
    H    0.807555    1.405698    0.849219
    H   -1.950859    0.896689    0.004487
    H   -1.145907   -1.923953    0.059683

