%NProcShared=4
#p b3lyp/6-311++G(3df,2p) freq IOp(2/17=3) IOp(2/18=3)

 b3lyp opt

-1 2
    O   -3.482176   -0.685064   -0.000000
    C    1.193956    0.714107   -0.000000
    C    0.363903   -0.543831    0.000000
    C   -1.007190   -0.562191    0.000000
    C   -2.257719   -0.628822    0.000000
    H    1.855318    0.794325    0.879095
    H    1.855318    0.794325   -0.879095
    H    0.548195    1.594499    0.000000
    H    0.930594   -1.477451   -0.000000

