%NProcShared=2
#p b3lyp/6-311++G(3df,2p) freq IOp(2/17=3) IOp(2/18=3)

 b3lyp opt

-1 4
    C   -1.317252    0.254636    0.646815
    C    1.148293   -0.466545    0.000000
    O    1.715372    0.698778   -0.000000
    C   -0.343991   -0.683582    0.000000
    C   -1.317252    0.254636   -0.646815
    H   -1.697372    0.644542    1.575623
    H   -0.531263   -1.756912    0.000000
    H    1.802596   -1.336901   -0.000000
    H   -1.697372    0.644542   -1.575623

