%NProcShared=4
#p b3lyp/6-311++G(3df,2p) freq IOp(2/17=3) IOp(2/18=3)

 b3lyp opt

-1 2
    O   -3.481933   -0.685269    0.000000
    C    1.193649    0.714330    0.000000
    C    0.364152   -0.543980   -0.000000
    C   -1.006928   -0.562884   -0.000000
    C   -2.257478   -0.629128    0.000000
    H    1.854982    0.794853    0.879094
    H    1.854982    0.794853   -0.879094
    H    0.547536    1.594471   -0.000000
    H    0.931238   -1.477347    0.000000

