%NProcShared=4
#p b3lyp/6-311++G(3df,2p) freq IOp(2/17=3) IOp(2/18=3)

 b3lyp opt

-1 2
    C   -2.468195   -0.195846   -0.000000
    C    1.234402   -0.354280   -0.000000
    O    2.445267    0.017007    0.000000
    C    0.100645    0.498486   -0.000000
    C   -1.212703    0.143454   -0.000000
    H   -3.055646   -0.362248   -0.918798
    H    1.002644   -1.439972    0.000000
    H    0.320550    1.565202   -0.000000
    H   -3.055645   -0.362249    0.918798

