%NProcShared=4
#p b3lyp/6-311++G(3df,2p) freq IOp(2/17=3) IOp(2/18=3)

 b3lyp opt

-1 2
    O    0.931242    1.443643    0.000000
    C    0.268399    0.187757   -0.000000
    C    1.047312   -0.973021   -0.000000
    C   -1.105306    0.272740   -0.000000
    C   -2.336604    0.326896   -0.000000
    H    2.129683   -0.917594    0.000000
    H    0.591101   -1.950343   -0.000000
    H    1.869327    1.237466    0.000000
    H   -3.395154    0.372556    0.000000

