%NProcShared=2
#p b3lyp/6-311++G(3df,2p) freq IOp(2/17=3) IOp(2/18=3)

 b3lyp opt

-1 2
    C    0.599964   -0.543326   -0.395498
    H    0.781195   -0.987397   -1.379150
    H    0.936430    0.497864   -0.413459
    H   -0.891941   -1.119804    0.730144
    H    1.207930   -1.082806    0.336539
    O   -0.787386   -0.603705   -0.079630

