%NProcShared=2
#p b3lyp/6-311++G(3df,2p) freq IOp(2/17=3) IOp(2/18=3)

 b3lyp opt

-1 3
    C   -0.943412   -2.423091   -0.502464
    C    0.521647    1.242979   -0.187565
    C    0.134399   -0.075030   -0.420820
    C   -0.425991   -1.232556   -0.436177
    H    1.391420    1.590708   -0.784671
    O    0.001147    2.050778    0.605822

