%NProcShared=5
#p ccsd(t,maxcyc=200)/6-311+G(3df) scf(MaxCyc=300) guess(Huckel)

 ccsd(t) iener

2 1
    C   -0.126224   -0.000000    0.024626
    C   -0.003873    0.000000    2.694906
    C    0.193805    0.000000    3.961595
    C   -0.205192    0.000000    1.427916
    C    0.149031   -0.000000    5.368584

