%NProcShared=4
#p ccsd(t)/6-311+G(3df) scf(MaxCyc=300) guess(Huckel)

 ccsd(t) iener

2 1
    C   -0.590015    0.852526    0.081892
    C    0.874050    0.560610   -0.021691
    C    1.271347   -0.655040   -0.113209
    C   -1.426805   -0.118641    0.080256
    C   -0.128578   -0.639455   -0.027248

