%NProcShared=4
#p ccsd(t)/6-311+G(3df) scf(MaxCyc=300) guess(Huckel)

 ccsd(t) iener

2 3
    C   -1.717723   -0.651170   -0.499584
    C    0.871769    0.059898   -0.844293
    C    1.193009   -0.011713    0.485882
    C   -0.458136   -0.020702   -0.178647
    C    0.111080    0.623686    1.036643

