%NProcShared=4
#p ccsd(t)/6-311+G(3df) scf(MaxCyc=300) guess(Huckel)

 ccsd(t) iener

2 1
    C    0.674436   -0.317982   -0.851508
    C   -0.945750   -0.417431    0.568946
    C   -0.219121    0.913478    0.710309
    C    0.200179    0.902026   -0.622443
    C    0.290257   -1.080091    0.194695

