%NProcShared=4
#p ccsd(t)/6-311+G(3df) scf(MaxCyc=300) guess(Huckel)

 ccsd(t) iener

2 3
    C    0.647971    0.158589   -1.126753
    C    1.097120    0.087861    0.195916
    C   -1.233965   -0.174173    0.578189
    C   -0.053913    0.414118    0.915283
    C   -0.457213   -0.486395   -0.562635

