%NProcShared=4
#p ccsd(t)/6-311+G(3df) scf(MaxCyc=300) guess(Huckel)

 ccsd(t) iener

2 1
    C    0.179477   -0.651158   -0.082684
    C   -0.223616   -2.045644   -0.022626
    C    1.253363    0.329926   -0.363791
    C   -1.084798    1.701840    0.401870
    C   -0.124426    0.665036    0.067230

