%NProcShared=4
#p ccsd(t)/6-311+G(3df) scf(MaxCyc=300)

 ccsd(t) iener

1 2
    C    0.944518    0.404742   -0.003258
    C   -0.452597    0.766763   -0.512907
    C   -0.944518   -0.404742    0.003258
    C    0.452597   -0.766763    0.512907
    C   -0.653321   -1.555972    0.685571
    C    0.653322    1.555972   -0.685571

