%NProcShared=4
#p ccsd(t)/6-311+G(3df) scf(MaxCyc=300) guess(Huckel)

 ccsd(t) iener

2 3
    C   -0.326498    1.136023   -0.748106
    C   -1.217445    0.210887   -0.465188
    C   -1.049641   -0.898057    0.222749
    C    0.864208    0.688195   -0.153800
    C    1.425701   -0.246665    0.544454
    C    0.303674   -0.890384    0.599892

