%NProcShared=4
#p ccsd(t)/6-311+G(3df) scf(MaxCyc=300) guess(Huckel)

 ccsd(t) iener

2 1
    C    2.207529    0.991895    0.819179
    C   -0.987039   -0.443128   -0.366324
    C   -2.207390   -0.992160   -0.819084
    C    0.378742   -0.699414   -0.173693
    C   -0.378796    0.699510    0.173732
    C    0.986953    0.443296    0.366189

