%NProcShared=4
#p ccsd(t)/6-311+G(3df) scf(MaxCyc=300) guess(Huckel)

 ccsd(t) iener

2 1
    C    0.960340   -0.481900    0.461230
    C   -0.879983   -0.090777    0.764824
    C    0.879944    0.090762   -0.764786
    C   -0.960299    0.481884   -0.461200
    C   -0.092151    0.654889   -1.402887
    C    0.092148   -0.654859    1.402821

