%NProcShared=4
#p ccsd(t)/6-311+G(3df) scf(MaxCyc=300)

 ccsd(t) iener

2 1
    C    1.385797    1.118028    0.362003
    C    0.474539    0.138781   -0.020996
    C   -0.867656   -0.192648   -0.103028
    C    1.773336   -0.293979   -0.269615
    C   -2.061619   -0.475880   -0.198838
    C   -3.400747   -0.794498   -0.303873
    C    2.696349    0.500196    0.534348

