%NProcShared=4
#p ccsd(t)/6-311+G(3df) scf(MaxCyc=300) guess(Huckel)

 ccsd(t) iener

2 1
    C    1.010225    0.926239    0.936468
    C    1.873592    1.680495    1.760672
    C   -0.332275    0.588974    0.743109
    C    0.990922    0.058431   -0.159205
    C   -0.396110   -0.310139   -0.399042
    C   -1.198365   -0.975288   -1.183885
    C   -1.947990   -1.968712   -1.698116

