%NProcShared=4
#p ccsd(t)/6-311+G(3df) scf(MaxCyc=300) guess(Huckel)

 ccsd(t) iener

2 3
    C   -1.258179   -0.729800    0.380055
    C    1.019171    0.677702   -0.415574
    C    0.617926    1.426402   -1.517923
    C    0.093116   -0.208169    0.297912
    C   -2.585903   -0.842415   -0.036565
    C    2.334377    0.752066    0.046600
    C   -0.220508   -1.075787    1.245494

