%NProcShared=6
#p ccsd(t)/6-311+G(3df) scf(MaxCyc=300)

 ccsd(t) iener

1 4
    C   -0.894286   -0.311149   -1.262737
    C   -0.714668    0.992627   -0.996486
    C    1.283327   -0.248113    1.838045
    C    0.029166   -0.054820    1.421428
    C   -0.038083    0.267218   -0.039247
    C   -0.967700   -1.645261   -1.377931
    C    1.315367   -0.047511    0.517961

