#p ccsd(t)/6-311++G(3df,2p) scf(MaxCyc=300) guess(Huckel) 

ccsd(t) iener

0 3
    6      -0.826545    1.227956    0.000000
    6       0.000000    0.243102    0.000000
    6       0.560203   -0.977989    0.000000
    1      -0.040211   -1.878151    0.000000
    1       1.638265   -1.080258    0.000000

