#p ccsd(t)/6-311++G(3df,2p) scf(MaxCyc=300) guess(Huckel) 

ccsd(t) iener

0 3
    6       0.000000    0.000000    0.000000
    6       0.000000    0.000000    1.265501
    6       0.000000    0.000000   -1.265501
    1       0.000000    0.000000   -2.327315
    1       0.000000    0.000000    2.327315

