#p ccsd(t)/6-311++G(3df,2p) scf(MaxCyc=300) guess(Huckel) 

ccsd(t) iener

0 3
    6       1.250460   -0.040323    0.000000
    6       0.000000    0.467595    0.000000
    6      -1.029962   -0.434960    0.000000
    1      -1.169593   -1.501827    0.000000
    1      -0.153395    1.547957    0.000000

