%NProcShared=4
#p ccsd(t,maxcyc=200)/6-311++G(3df,2p)

 ccsd(t) iener

0 2
C  0.634181436 -0.022333461  0.163879171
C -0.811789008  0.209551120 -0.074847266
H -1.402993806 -0.496676317 -0.639822135
H  1.252104032  0.355933089 -0.664190349
H  0.866362888 -1.084796756  0.258421058
H -1.278933347  1.143665297  0.202071098
H  0.985116096  0.485371769  1.064298469

