%NProcShared=4
#p ccsd(t,maxcyc=200)/6-311++G(3df,2p)

 ccsd(t) iener

1 2
C -0.074185242  0.522773486  0.730242964
C  0.200600309 -0.464656153 -0.472074164
H -0.677469568 -0.920359346 -0.915022298
H  0.645240906 -1.142701964  0.332666772
H  0.803884634  0.978476680  1.173191098
H  0.965002130 -0.149315732 -1.172877584
H -0.518825840  1.200819297 -0.074497972
H -0.838587064  0.207433065  1.431046384

