%NProcShared=4
#p ccsd(t,maxcyc=200)/6-311++G(3df,2p)

 ccsd(t) iener

1 2
C  0.517933401 -0.401716424  0.310888755
C -0.206594528  0.732763817 -0.294389767
C -1.323771741 -0.188549660 -0.009154339
H -0.208197411  1.632867745  0.314990488
H -1.648863437 -0.913669246 -0.744035128
H  0.901951900 -1.207455168 -0.301375253
H  0.698893183 -0.441517461  1.377294766
H -0.006342710  0.871471588 -1.353726025
H -1.851933098 -0.147690259  0.934725361

