%NProcShared=4
#p b3lyp/6-311++G(3df,2p) freq symmetry=Loose

 b3lyp opt

3 2
    C   -0.771934   -0.052022   -0.001916
    C    0.506443    0.805674    0.000372
    C    1.618719   -0.213569    0.000856
    C    0.401549   -0.768205   -0.000473
    C   -2.320743   -0.054470    0.000345
    H    0.617943    1.941797    0.000796
    H    2.741630   -0.238953    0.001742

