%NProcShared=4
#p b3lyp/6-311++G(3df,2p) freq symmetry=Loose

 b3lyp opt

1 3
    C    0.000132    0.620592    0.000000
    H    0.000541    1.713540   -0.000000
    C    0.995981   -0.266376   -0.000000
    H    1.643939   -1.125940    0.000000
    C   -0.996035   -0.265948    0.000000
    H   -1.644389   -1.125193   -0.000000

