%NProcShared=4
#p b3lyp/6-311++G(3df,2p) freq symmetry=Loose

 b3lyp opt

3 1
    C    1.829563    0.657219   -0.000345
    C    1.827317   -0.658549    0.000390
    C    0.618148    0.002421    0.000341
    C   -0.837758   -0.000569   -0.000230
    C   -2.131328   -0.009849   -0.002706
    H   -2.603021    1.086868    0.103193
    H   -2.616915   -0.434334   -0.997666
    H   -2.615714   -0.596570    0.909773

