%NProcShared=4
#p b3lyp/6-311++G(3df,2p) freq symmetry=Loose

 b3lyp opt

3 2
    C    0.000000    0.778987    0.000000
    H    0.982562    1.548167    0.000000
    H   -0.982432    1.549112    0.000000
    C    0.000000   -0.778987    0.000000
    H   -0.982562   -1.548167    0.000000
    H    0.982432   -1.549112    0.000000

