%NProcShared=4
#p b3lyp/6-311++G(3df,2p) freq symmetry=Loose

 b3lyp opt

3 2
    C    0.000043   -1.160685    0.000000
    H    0.000043   -2.433586    0.000000
    H    0.000068   -1.606494    1.126521
    H    0.000068   -1.606494   -1.126521
    C    0.000000    0.171541    0.000000
    C   -0.000056    1.491296    0.000000
    H   -0.000101    2.633668    0.000000

