%NProcShared=4
#p b3lyp/6-311++G(3df,2p) freq symmetry=Loose

 b3lyp opt

1 2
    C    0.629814    1.098789    0.000305
    C    1.191468   -0.171119    0.000295
    H    2.232170   -0.465723   -0.001313
    C   -1.193938   -0.161416   -0.000347
    C   -0.622261    1.104093   -0.002013
    H   -2.236962   -0.447706    0.001566
    C   -0.005156   -1.123536    0.000366
    H   -0.008304   -1.796666    0.868978
    H   -0.007492   -1.797144   -0.867899

