%NProcShared=4
#p b3lyp/6-311++G(3df,2p) freq symmetry=Loose

 b3lyp opt

3 2
    C    2.539725    0.752466    0.000000
    C   -1.652337   -1.668606   -0.000000
    H   -0.934534   -2.502364   -0.000000
    H   -2.737931   -1.863015   -0.000000
    C   -1.204330   -0.251029    0.000000
    H   -2.003749    0.553759    0.000000
    C   -0.000539    0.337678   -0.000000
    C    1.097671    1.092169   -0.000000
    H    0.990413    2.234437   -0.000000

