%NProcShared=4
#p ccsd(t)/6-311++G(3df,2p) scf(MaxCyc=300) guess(Huckel)

 ccsd(t) iener

0 1
    S    0.408485   -0.907822    1.825049
    S   -0.291165    0.622572   -0.939287
    S   -0.232880    0.634247   -2.874877
    S   -0.467739    0.778211    2.225897
    S    0.583299   -1.127209   -0.236782

