%NProcShared=4
#p ccsd(t)/6-311++G(3df,2p) scf(MaxCyc=300) guess(Huckel)

 ccsd(t) iener

1 2
S -0.973197043  0.011214563 -1.774435732
S  1.017020126  0.088974669 -1.367456434
S  1.204749323  0.405674935  2.194536949
S -1.699383874  0.096389669  0.122414566
S  0.450812467 -0.602254837  0.824939652

