%NProcShared=4
#p ccsd(t)/6-311++G(3df,2p) scf(MaxCyc=300) guess(Huckel)

 ccsd(t) iener

0 1
S  2.103595013  0.275013158  0.639176161
S -0.791222379 -1.609370926 -0.282029425
S -1.887392658 -0.208339889  0.781204119
S -1.149318379  1.304617074 -0.427576425
S  0.766346403  0.043676584 -0.702305430

