%NProcShared=4
#p ccsd(t)/6-311++G(3df,2p) scf(MaxCyc=300) guess(Huckel)

 ccsd(t) iener

0 1
S -0.105077002  1.726922785  0.266343384
S -1.553449824  0.440295559 -0.367212878
S -0.899819172 -1.325314373  0.552295120
S  0.869985972 -1.289046145 -0.568678025
S  1.688359026  0.447143174  0.117251399

