%NProcShared=4
#p ccsd(t)/6-311++G(3df,2p) scf(MaxCyc=300) guess(Huckel)

 ccsd(t) iener

1 4
    S    0.086365   -0.737388    1.711830
    S   -0.995562   -0.283092   -1.481661
    S    0.295930    1.229114   -1.633534
    S    0.209484    1.161904    1.853842
    S    0.403784   -1.370539   -0.450477

