%NProcShared=4
#p ccsd(t)/6-311++G(3df,2p) scf(MaxCyc=300) guess(Huckel)

 ccsd(t) iener

0 1
S -0.970960513 -0.301000245 -1.768093453
S  0.977517229  0.295252383 -1.300086055
S  1.214087568  0.288273636  2.211276325
S -1.620385771  0.302626383  0.125314945
S  0.399742487 -0.585153156  0.731588237

