%NProcShared=4
#p ccsd(t)/6-311++G(3df,2p) scf(MaxCyc=300) guess(Huckel)

 ccsd(t) iener

1 4
S -0.339195945  1.929880580  0.196986706
S -1.702045155  0.546722368 -0.130850449
S -0.949102575 -1.364002196  0.286805130
S  1.043917439 -1.412068252 -0.359560053
S  1.946425236  0.299467500  0.006618667

