%NProcShared=4
#p ccsd(t)/6-311++G(3df,2p) scf(MaxCyc=300) guess(Huckel)

 ccsd(t) iener

0 3
    S   -0.501537   -0.322744    1.073003
    S   -1.048922   -1.603828   -0.333420
    S   -1.090881    1.524579   -1.695230
    S    1.693365   -0.248627    0.885332
    S    2.330321    0.957018    2.254619
    S   -1.382347   -0.306399   -2.184304

