%NProcShared=4
#p ccsd(t)/6-311++G(3df,2p) scf(MaxCyc=300) guess(Huckel)

 ccsd(t) iener

1 2
S -0.476985931 -0.015551489 -0.590198218
S  0.429480160 -0.908928984  2.443745768
S -1.278818705 -0.759629278  1.149249476
S  1.966270387 -0.229084061  1.261226206
S  1.489701477  1.767580553  1.353304030
S -0.218597388  1.916880259  0.058807738

