%NProcShared=4
#p ccsd(t)/6-311++G(3df,2p) scf(MaxCyc=300) guess(Huckel)

 ccsd(t) iener

0 1
    S   -0.127620   -0.494266   -0.937015
    S    0.515186    1.246915    3.497465
    S   -0.720913    1.104812    2.035770
    S   -1.646906   -0.934997    1.693327
    S   -0.228752   -1.919580    0.589606
    S    0.654224    0.997435    0.192481

