7
Energy =   -189.726704747     
    C   -2.408528   -0.307906   -0.000210
    C   -1.175487    0.022483   -0.000255
    C    0.123055    0.548618   -0.000434
    C    1.358764   -0.032467    0.000263
    C    2.617724   -0.392389    0.000803
    H   -3.474287   -0.631810   -0.000186
    H    0.217552    1.691671   -0.001257
