%NProcShared=4
#p b3lyp/6-311+G(3df) freq symmetry=Loose

 b3lyp opt

1 4
    C   -0.000000   -0.000000    3.193106
    C   -0.000000   -0.000000    1.918689
    C   -0.000000    0.000000    0.634799
    C    0.000000    0.000000   -0.634799
    C    0.000000    0.000000   -1.918689
    C   -0.000000   -0.000000   -3.193105

