%NProcShared=4
#p b3lyp/6-311+G(3df) freq symmetry=Loose

 b3lyp opt

1 2
    C    0.598304   -0.020074    0.675201
    C   -0.296898    0.009895   -0.334980
    C   -2.007815    0.067476   -2.265982
    C    1.705983    0.498827    1.352992
    C    1.121863   -0.593765    1.838343
    C   -1.121437    0.037642   -1.265572

