%NProcShared=4
#p b3lyp/6-311+G(3df) freq symmetry=Loose

 b3lyp opt

1 4
    C   -0.263351    1.103072   -0.711390
    C   -1.235530    0.213711   -0.471858
    C   -0.971339   -0.889527    0.239813
    C    0.971339    0.889533   -0.239817
    C    1.235534   -0.213713    0.471860
    C    0.263345   -1.103078    0.711391

