%NProcShared=4
#p b3lyp/6-311+G(3df) freq symmetry=Loose

 b3lyp opt

2 3
    C   -1.046114   -0.917323   -0.198063
    C    1.044682    0.916061    0.197794
    C   -1.211820    0.374108   -0.251452
    C   -0.180167    1.281482   -0.057472
    C    0.179494   -1.279150    0.057121
    C    1.213925   -0.375179    0.252072

