%NProcShared=4
#p b3lyp/6-311+G(3df) freq symmetry=Loose

 b3lyp opt

1 4
    C    1.095385   -0.027371    0.641790
    C   -1.221598    0.349733   -0.519385
    C   -0.074725   -0.064973    1.302012
    C   -1.481247    0.072037    1.099929
    C    0.184926    0.212721   -0.317314
    C   -2.391712    0.312130    0.140830

