%NProcShared=4
#p b3lyp/6-311+G(3df) freq symmetry=Loose

 b3lyp opt

1 2
    C   -0.550274   -0.005412   -0.692394
    C    0.337817   -0.887433    0.660087
    C   -1.067285   -0.379638    0.649605
    C    0.518949    0.550282    0.508931
    C    0.030946    1.477880   -0.350703
    C    0.729848   -0.755680   -0.775527

