%NProcShared=4
#p b3lyp/6-311+G(3df) freq symmetry=Loose

 b3lyp opt

1 2
    C    0.146984   -1.133670   -0.104828
    C    0.673932    0.915486   -0.118626
    C    0.043624    0.120889   -1.143410
    C   -0.769900   -0.408825    0.742331
    C    0.767871   -0.218288    0.820448
    C   -0.862509    0.724407   -0.195915

