%NProcShared=4
#p b3lyp/6-311+G(3df) freq symmetry=Loose

 b3lyp opt

1 4
    C   -0.115018    0.015607   -0.111377
    C    1.548350    0.546799    1.494900
    C    0.182922    0.281972    1.244226
    C   -1.040295   -0.279030   -1.004632
    C    1.250359    0.279936    0.139516
    C    2.473209    0.841965    2.388414

