%NProcShared=4
#p b3lyp/6-311+G(3df) freq symmetry=Loose

 b3lyp opt

1 2
    C   -0.280037    1.043590   -0.681733
    C   -1.264869    0.218782   -0.483068
    C   -0.946228   -0.831448    0.213358
    C    0.946228    0.831448   -0.213358
    C    1.264869   -0.218783    0.483068
    C    0.280036   -1.043591    0.681733

