%NProcShared=4
#p b3lyp/6-311+G(3df) freq symmetry=Loose

 b3lyp opt

1 2
    C    0.022747    0.652288    2.561325
    C   -0.042552   -0.000699   -0.048699
    C    0.025518   -0.649655    2.562305
    C   -0.738063   -0.003049   -1.263994
    C    0.740901    0.000157   -1.198778
    C    1.981522    0.002435   -1.727970
    C    0.012835    0.000410    1.331243

