%NProcShared=4
#p b3lyp/6-311+G(3df) freq symmetry=Loose

 b3lyp opt

1 2
    C    1.197981    1.126430    0.390422
    C    0.365969   -1.021042   -0.111700
    C   -0.868704   -0.140513    0.244951
    C    0.992102   -0.503593   -1.271960
    C   -2.276276   -0.096235    0.378592
    C    0.087219    0.598253   -0.597633
    C    0.501708    0.036701    0.967327

