%NProcShared=4
#p b3lyp/6-311+G(3df) freq symmetry=Loose

 b3lyp opt

1 2
    C   -1.847285   -0.379563    0.000000
    C    0.950897    0.583845    0.000000
    C   -1.193082    0.758015    0.000000
    C    0.353982   -1.450340    0.000000
    C    1.426224   -0.641279    0.000000
    C   -0.062686    1.385782    0.000000
    C   -0.907710   -1.325102    0.000000

