%NProcShared=4
#p b3lyp/6-311+G(3df) freq symmetry=Loose

 b3lyp opt

2 1
    C   -1.059609   -1.261447   -0.161385
    C    0.497611   -0.879754   -0.061887
    C    0.257263    1.343155    1.284682
    C    0.675063    0.145265    0.915448
    C   -0.451718    1.032275    0.213428
    C    0.745074   -0.395523   -1.424645
    C   -0.663684    0.016028   -0.765642

