%NProcShared=4
#p b3lyp/6-311+G(3df) freq symmetry=Loose

 b3lyp opt

2 1
    C    1.220996    0.170494   -0.337970
    C    0.505392    0.933636    0.642413
    C   -0.471770   -1.390692    0.242334
    C    0.756177   -1.112179   -0.105876
    C    0.079585    0.794631   -0.949346
    C   -0.839077    0.953471    0.144630
    C   -1.251302   -0.349361    0.363816

