%NProcShared=4
#p b3lyp/6-311+G(3df) freq symmetry=Loose

 b3lyp opt

1 2
    C    0.000000    0.000000    3.867482
    C    0.000000    0.000000    2.549997
    C    0.000000    0.000000    1.277072
    C    0.000000    0.000000    0.000000
    C    0.000000    0.000000   -1.277071
    C    0.000000    0.000000   -2.549997
    C    0.000000    0.000000   -3.867482

