%NProcShared=4
#p b3lyp/6-311+G(3df) freq symmetry=Loose

 b3lyp opt

1 2
    C   -0.680025   -1.758801    1.415429
    C    0.421292    1.088602   -0.876119
    C   -0.290724   -0.750793    0.604280
    C   -0.746012    0.609921    0.682450
    C    1.085484    0.031993   -1.308246
    C    0.647491   -0.863572   -0.478168
    C   -0.437506    1.642650   -0.039625

