%NProcShared=4
#p b3lyp/6-311+G(3df) freq symmetry=Loose

 b3lyp opt

1 4
    C    0.033440    0.679707    2.556118
    C   -0.095179   -0.000800   -0.049461
    C    0.036395   -0.677039    2.557089
    C   -0.680946   -0.002906   -1.242074
    C    0.718664    0.000079   -1.237199
    C    2.000841    0.002454   -1.731158
    C   -0.010308    0.000391    1.362116

