%NProcShared=4
#p b3lyp/6-311+G(3df) freq symmetry=Loose

 b3lyp opt

1 4
    C   -1.118598   -0.035394    0.903308
    C    2.532831    0.023970    0.892979
    C   -0.005115   -0.100417    0.134951
    C    1.195806    0.002142    0.896779
    C   -0.003476    0.065718    1.665444
    C    3.754801    0.043917    0.889529

