%NProcShared=4
#p b3lyp/6-311+G(3df) freq symmetry=Loose

 b3lyp opt

2 3
    C   -0.540765    0.029796   -0.689565
    C    0.343493   -0.753187    0.633153
    C   -1.131094   -0.474199    0.613603
    C    0.615925    0.656224    0.602324
    C    0.028096    1.393296   -0.333105
    C    0.684345   -0.851930   -0.826411

