%NProcShared=4
#p b3lyp/6-311+G(3df) freq symmetry=Loose

 b3lyp opt

1 2
    C    1.013722   -0.019417    0.630059
    C   -1.168399    0.348730   -0.534534
    C   -0.127924   -0.063958    1.317166
    C   -1.435212    0.063378    1.129354
    C    0.138890    0.221367   -0.346744
    C   -2.310050    0.304177    0.152561

