%NProcShared=4
#p b3lyp/6-311+G(3df) freq symmetry=Loose

 b3lyp opt

2 3
C  0.455111000 -0.697167000 -0.172549998
C -0.930685093 -0.650925771  0.175247430
C  0.930685093  0.650925771 -0.175247430
C -0.455111000  0.697167000  0.172549998
C  2.108239747  1.474513339 -0.396980246
C -2.108239747 -1.474513339  0.396980246

