%NProcShared=4
#p b3lyp/6-311+G(3df) freq symmetry=Loose

 b3lyp opt

1 2
    C    0.000000    0.000000    3.240976
    C    0.000000    0.000000    1.906848
    C    0.000000    0.000000    0.651727
    C    0.000000    0.000000   -0.651727
    C    0.000000    0.000000   -1.906848
    C    0.000000    0.000000   -3.240976

