%NProcShared=4
#p b3lyp/6-311+G(3df) freq symmetry=Loose

 b3lyp opt

2 1
C  0.723913675 -0.850243181  0.521287259
C  0.540876436  0.857339713 -1.119975881
C -0.299242482 -0.175904146 -0.828720187
C -0.774528233 -0.956057720  0.285417635
C  0.621709930  0.648639516  0.347392914
C -0.812729325  0.476225819  0.794597259

