%NProcShared=4
#p b3lyp/6-311+G(3df) freq symmetry=Loose

 b3lyp opt

2 1
    C    0.675509   -0.498796   -0.944602
    C   -0.171873    0.763390   -0.951422
    C    0.064497    0.556396    1.402179
    C   -0.877500    0.271083    0.291627
    C   -0.497728   -1.110881   -0.191734
    C    0.807096    0.018808    0.393953

