%NProcShared=4
#p b3lyp/6-311+G(3df) freq symmetry=Loose

 b3lyp opt

2 1
C  2.207585178  0.991701559  0.819186580
C -0.986939905 -0.443357812 -0.366231966
C -2.207585512 -0.991701892 -0.819186913
C  0.378699764 -0.699493195 -0.173738296
C -0.378700097  0.699492861  0.173737963
C  0.986939571  0.443357479  0.366231633

