%NProcShared=4
#p b3lyp/6-311+G(3df) freq symmetry=Loose

 b3lyp opt

2 1
C  0.172208248  0.742365535  0.750097738
C  0.906734602 -0.517937309 -0.230178780
C -0.300465166 -0.672037612  0.638872073
C -0.238637461 -0.303257357 -1.119852192
C -1.459684906 -0.552195414 -0.383813765
C -0.859142389  0.761407132 -0.291745199
C  1.778987071  0.541654025  0.636621125

