%NProcShared=4
#p b3lyp/6-311+G(3df) freq symmetry=Loose

 b3lyp opt

1 2
    C   -0.687961   -0.945433    1.632836
    C    0.342366   -0.437362   -0.705185
    C   -0.135817   -1.165861    0.438489
    C   -0.516335    0.269633    1.109321
    C   -0.010331    0.893745   -0.083061
    C    0.889889   -0.763551   -1.876794
    C    0.118189    2.148831   -0.515604

