%NProcShared=4
#p b3lyp/6-311+G(3df) freq symmetry=Loose

 b3lyp opt

1 4
    C    1.421716    1.071953    0.471143
    C    0.410447    0.092794    0.043886
    C   -0.848911   -0.191938   -0.090891
    C    1.805454   -0.342413   -0.125756
    C   -2.083013   -0.470914   -0.222857
    C   -3.375609   -0.763201   -0.361131
    C    2.669915    0.603717    0.285607

