%NProcShared=4
#p b3lyp/6-311+G(3df) freq symmetry=Loose

 b3lyp opt

2 1
C  1.142370663  1.259307164  0.543343763
C  0.346591555 -0.998645529 -0.058579185
C -0.841906511 -0.068981411  0.172393663
C  0.900541186 -0.645027345 -1.399661528
C -2.233981350 -0.153225080  0.428220479
C  0.214554976  0.618999800 -0.633383808
C  0.471830480 -0.012426598  0.947666615

