%NProcShared=4
#p b3lyp/6-311+G(3df) freq symmetry=Loose

 b3lyp opt

1 2
    C    1.258386   -0.443092    0.326227
    C    0.949299    0.815662    0.565554
    C   -0.256290   -0.043240   -0.103515
    C   -0.456785    1.274704    0.191062
    C   -1.414031    2.205500    0.108023
    C   -0.261239   -2.488262   -0.784749
    C    0.180660   -1.321271   -0.302603

