#p b3lyp/6-311+G(3df) opt freq symmetry=Loose

 b3lyp opt

1 4
    6      -1.702    0.00    0.00
    6      -3.022    0.00    0.00
    6       3.244    0.00    0.00
    6      -0.540   -0.81    0.00
    6      -0.540    0.81    0.00
    6       0.618    0.00    0.00
    6       1.944    0.00    0.00

