%NProcShared=4
#p b3lyp/6-311+G(3df) freq symmetry=Loose

 b3lyp opt

1 4
    C   -0.566544   -0.781516    1.357679
    C    0.519213   -1.466232   -0.984436
    C   -0.007134   -0.873725    0.119919
    C   -0.339905    0.394872    0.710937
    C   -0.321414    1.738950    0.508899
    C    0.998275   -1.939967   -1.991304
    C   -0.282491    2.927620    0.278308

