%NProcShared=4
#p b3lyp/6-311+G(3df) freq symmetry=Loose

 b3lyp opt

2 3
    C   -1.577363   -0.475500   -0.009885
    C    1.048574   -0.916263   -0.383677
    C    0.631895    0.112314    1.061367
    C    0.104586    0.958488   -0.019557
    C   -1.277050    0.736746   -0.334543
    C    1.295719    0.431667   -0.637766
    C   -0.226360   -0.847451    0.324060

