%NProcShared=1
#p b3lyp/6-311++G(3df,2p) freq symmetry=Loose

 b3lyp opt

1 2
C -1.890656045  0.000450828  0.000123869
C -0.661820548  0.000287609 -0.000063175
C  0.661784459  0.000178030 -0.000223375
C  1.890619974  0.000125562 -0.000319418
C*V-->D*H -2.963462010  0.000393239  0.000176630
C*V-->D*H  2.963425929 -0.000134598 -0.000201429

