%NProcShared=1
#p b3lyp/6-311++G(3df,2p) freq symmetry=Loose

 b3lyp opt

2 3
C -1.916445985 -0.000904756 -0.000130104
C -0.645964985  0.000071855 -0.000583474
C  0.646079997  0.000670276 -0.000630070
C  1.916557973  0.000688625 -0.000077352
H -3.013069000 -0.001898000  0.000419000
H  3.013198000  0.000448000  0.000669000

