%NProcShared=4
#p b3lyp/6-311++G(3df,2p) freq symmetry=Loose

 b3lyp opt

0 3
    C   -1.760141   -0.067445    0.001344
    C   -0.439755    0.174588   -0.000773
    C    0.828850    0.014056   -0.004826
    C    2.144813   -0.063606    0.003587
    H   -2.153565   -1.082286   -0.000099
    H   -2.489045    0.736729    0.004103

