%NProcShared=1
#p b3lyp/6-311++G(3df,2p) freq symmetry=Loose

 b3lyp opt

2 3
C -1.760681968 -0.000490333 -0.000169027
C -0.432543946 -0.000142349 -0.000055920
C  0.852882070  0.000194444  0.000053551
C  2.119230845  0.000526238  0.000161396
H -2.335479656 -0.950391039 -0.000230013
H -2.335977344  0.949109039 -0.000205987

