%NProcShared=1
#p b3lyp/6-311++G(3df,2p) freq symmetry=Loose

 b3lyp opt

0 3
C -1.923234782 -0.141317367  0.000124388
C -0.640231909  0.049262909 -0.000093142
C  0.640199094  0.049344357 -0.000091909
C  1.923226201 -0.141072694  0.000128091
H -2.751462612  0.555529254 -0.000676715
H  2.751365373  0.555879288 -0.000671416

