%NProcShared=1
#p b3lyp/6-311++G(3df,2p) freq symmetry=Loose

 b3lyp opt

1 2
C -1.763439997 -0.000157277 -0.000194518
C -0.437804994 -0.000069521 -0.000077466
C  0.822979999  0.000013942  0.000033860
C  2.151005992  0.000101856  0.000151124
H -2.318105875 -0.938652998 -0.000242997
H -2.318230125  0.938264998 -0.000244003

