%NProcShared=4
#p b3lyp/6-311++G(3df,2p) freq IOp(2/17=3) IOp(2/18=3)

 b3lyp opt

2 3
C  0.860334196 -0.660535690 -0.000073806
C  0.860741701  0.659991217 -0.000073885
C -0.412714078  0.000120680  0.000032011
C -1.727489809  0.000526410  0.000141320
H  1.256862768 -1.686026709 -0.000106738
H  1.257903116  1.685237308 -0.000106939

