%NProcShared=1
#p b3lyp/6-311++G(3df,2p) freq symmetry=Loose

 b3lyp opt

2 3
C  0.860334196 -0.660535690 -0.000073806
C  0.860741701  0.659991217 -0.000073885
C -0.412714078  0.000120680  0.000032011
C -1.727489809  0.000526409  0.000141320
H  1.256862769 -1.686026708 -0.000106739
H  1.257903115  1.685237309 -0.000106939

