%NProcShared=1
#p b3lyp/6-311++G(3df,2p) freq symmetry=Loose

 b3lyp opt

2 1
C  0.855590488 -0.684206848 -0.000653058
C  0.855984613  0.683730248 -0.000652550
C -0.354633437  0.000110441  0.000248799
C -1.801042625  0.000527174  0.001326183
H  1.331817825 -1.674842175 -0.001008365
H  1.332782706  1.674090993 -0.001007122

