%NProcShared=1
#p b3lyp/6-311++G(3df,2p) freq symmetry=Loose

 b3lyp opt

3 4
C  1.861417000 -0.109129000  0.000010000
C  0.555923000  0.040538000 -0.000077000
C -0.796430001  0.303620912 -0.000234482
C -1.925547999 -0.430500897  0.000228656
H  2.988163002 -0.258800762  0.000097867
H -1.160378003  1.433211574 -0.000936955

