%NProcShared=4
#p b3lyp/6-311++G(3df,2p) freq IOp(2/17=3) IOp(2/18=3)

 b3lyp opt

1 4
C -1.769091952  0.000426787 -0.000059954
C -0.420868836  0.000101592 -0.000014146
C  0.845139975 -0.000203773  0.000028869
C  2.121377813 -0.000511606  0.000072231
H -2.329893637 -0.932829076 -0.000078989
H -2.329443363  0.933953076 -0.000079011

