%NProcShared=1
#p b3lyp/6-311++G(3df,2p) freq symmetry=Loose

 b3lyp opt

2 1
C -1.852016326 -0.351384895  0.001740528
C -0.592984012  0.299158961 -0.000172472
C  0.713243942 -0.233378181  0.000035048
C  2.034796331 -0.016060089 -0.001127749
H -0.909668106  0.903281165 -0.944632966
H -0.908571108  0.906707289  0.942455711

