%NProcShared=1
#p b3lyp/6-311++G(3df,2p) freq symmetry=Loose

 b3lyp opt

0 3
C -1.483320011 -0.000087624  0.000020293
C -0.091545968  0.000011409  0.000015727
C  1.125699198  0.678810031 -0.000044451
C  1.125795786 -0.678613980  0.000067916
H -2.029822130 -0.933326097  0.000099336
H -2.029954935  0.933073067 -0.000055163

