%NProcShared=4
#p b3lyp/6-311++G(3df,2p) freq IOp(2/17=3) IOp(2/18=3)

 b3lyp opt

0 1
C -1.885739275 -0.000701674 -0.000150426
C -0.681547798 -0.000165894  0.000162624
C  0.681440226  0.000250134  0.000567986
C  1.885631793  0.000548165  0.000835287
H -2.947590573 -0.001261551 -0.000185825
H  2.947483219  0.000850785  0.000687181

