%NProcShared=4
#p b3lyp/6-311++G(3df,2p) freq IOp(2/17=3) IOp(2/18=3)

 b3lyp opt

2 3
C  1.791986000 -0.145043000 -0.000068000
C  0.548738000  0.098290000 -0.000016000
C -0.760739000  0.367337998  0.000040205
C -1.859820001 -0.499750995 -0.000035633
H  2.870531002 -0.340486010 -0.000111349
H -1.194706996  1.412922980  0.000166483

