%NProcShared=1
#p b3lyp/6-311++G(3df,2p) freq symmetry=Loose

 b3lyp opt

2 1
C  1.126552996  0.000039321  0.000011375
C -0.000173377  0.845349658  0.000005945
C -1.126275001 -0.000014994  0.000001547
C -0.000132616 -0.845325345  0.000006973
H  2.228168996  0.000065880  0.000016181
H -2.227999013 -0.000041555 -0.000003260

