%NProcShared=1
#p b3lyp/6-311++G(3df,2p) freq symmetry=Loose

 b3lyp opt

3 2
C  1.864546000 -0.170060000 -0.000232000
C  0.568576000  0.077456000  0.001445000
C -0.714003962  0.416181774  0.003442616
C -2.051653085 -0.513913494  0.000900672
H  2.981641932 -0.382756596 -0.001675169
H -1.037178367  1.526417235  0.007639716

