%NProcShared=4
#p b3lyp/6-311++G(3df,2p) freq symmetry=Loose

 b3lyp opt

3 4
    C    1.713633   -0.292529   -0.000020
    C    0.548826    0.359917    0.000009
    C   -0.780513    0.018817    0.000005
    C   -2.078145   -0.217268   -0.000002
    H    2.768740   -0.730723    0.000002
    H    0.805305    1.517159    0.000013

