%NProcShared=1
#p b3lyp/6-311++G(3df,2p) freq symmetry=Loose

 b3lyp opt

2 1
C -2.528870000 -0.000437105 -0.000105016
C -1.288817000  0.000141219  0.000363695
C  0.000014000  0.000277587  0.000475581
C  1.288836000  0.000203594  0.000417596
C  2.528863001 -0.000439294 -0.000099855
H -3.619235000 -0.000912000 -0.000490000
H  3.619232000 -0.000954000 -0.000514000

