%NProcShared=4
#p b3lyp/6-311++G(3df,2p) freq symmetry=Loose

 b3lyp opt

0 3
    C   -1.565983   -0.153580   -0.644082
    C   -0.257498    0.463896    0.001552
    C    0.996290   -0.258243    0.001672
    C    2.257617    0.072219   -0.001937
    C   -1.568232   -0.154946    0.641474
    H    0.996657   -1.360991    0.003538
    H   -0.169821    1.544912    0.004387

