%NProcShared=1
#p b3lyp/6-311++G(3df,2p) freq symmetry=Loose

 b3lyp opt

0 1
C -0.000104177 -1.041485012  0.076831060
C -1.044539066  0.000110673 -0.000264141
C  0.000381092  0.453931011 -0.940425055
C  1.044543802 -0.000046670  0.000501127
C -0.000269501  0.587346999  0.863043005
H -2.116916803  0.000589435  0.000165562
H  2.116920997  0.000270555  0.001716490

