%NProcShared=1
#p b3lyp/6-311++G(3df,2p) freq symmetry=Loose

 b3lyp opt

3 4
C -1.509735000  0.840346000 -0.000068000
C -0.358366000  0.025000000  0.000127000
C  1.013564966 -0.026212087 -0.000128518
C  2.339680852 -0.045216380 -0.000391670
C -1.683670819 -0.532539533  0.000695616
H  3.473056717 -0.084968727 -0.000604113
H -2.286336713 -1.476098263  0.001319976

