%NProcShared=4
#p b3lyp/6-311++G(3df,2p) freq symmetry=Loose

 b3lyp opt

2 3
    C   -0.409201   -0.001788    0.093317
    C    1.048085   -0.007023    0.378261
    C   -1.592647   -0.680885   -0.122419
    C    2.078439    0.010173   -0.568453
    C   -1.590591    0.685555   -0.107667
    H    1.397932   -0.920950    0.964329
    H    1.397559    0.884758    0.997431

