%NProcShared=1
#p b3lyp/6-311++G(3df,2p) freq symmetry=Loose

 b3lyp opt

2 3
C  1.347457721 -0.363226981 -0.000867477
C  0.000112154 -0.754223982  0.000038650
C -1.347354105 -0.363643015  0.000898649
C -0.647876884  0.872381492  0.000367157
C  0.647598794  0.872581492 -0.000481872
H  2.353278688 -0.791243742 -0.001501358
H -2.353042834 -0.791970320  0.001583071

