%NProcShared=1
#p b3lyp/6-311++G(3df,2p) freq symmetry=Loose

 b3lyp opt

2 3
C  0.567954529  0.015542247 -0.000037096
C -0.502478434  1.028018169  0.000123276
C -1.449244708 -0.034323045  0.000310383
C -0.451144616 -1.048587039  0.000162470
C  1.992942052  0.050768029 -0.000282562
H -0.528380684  2.122130691  0.000102429
H -0.422955195 -2.142643022  0.000182923

