%NProcShared=4
#p b3lyp/6-311++G(3df,2p) freq symmetry=Loose

 b3lyp opt

1 4
    C    1.479183    0.591944   -0.004550
    C    0.201114   -0.209772    0.300285
    C   -1.129771   -0.012895   -0.062889
    C   -2.344902    0.139018   -0.134185
    C    1.459279   -0.682012   -0.323298
    H    0.172336   -0.571515    1.369617
    H    1.832768    1.612321   -0.022033

