%NProcShared=4
#p b3lyp/6-311++G(3df,2p) freq symmetry=Loose

 b3lyp opt

1 4
    C   -2.383708    0.000291    0.000376
    C   -1.078468    0.000471    0.000166
    C    1.490648   -0.000612   -0.000780
    C    2.747845   -0.000417    0.000424
    C    0.205333    0.000715    0.000167
    H   -2.945609   -0.932899    0.000011
    H   -2.945704    0.933474    0.000006

