%NProcShared=1
#p b3lyp/6-311++G(3df,2p) freq symmetry=Loose

 b3lyp opt

1 4
C  1.235978772  0.323905779  0.000638986
C  0.570041989 -1.028857011 -0.000167930
C -0.839572727 -0.789657735 -0.000648934
C -1.409294765  0.492185227 -0.000374635
C -0.158552255  0.810985753  0.000262172
H  1.803830035  0.573958095  0.899443255
H  1.804563801  0.574668747 -0.897503168

