%NProcShared=4
#p b3lyp/6-311++G(3df,2p) freq IOp(2/17=3) IOp(2/18=3)

 b3lyp opt

0 1
C -1.900308554  0.683695086 -0.000086311
C -0.715971838  0.173072088 -0.000044743
C  0.000476745 -1.146677895 -0.000129484
C  0.715843144  0.173658984  0.000072681
C  1.899760848  0.685252720  0.000225336
H  0.000782355 -1.706900692 -0.926548872
H  0.000630495 -1.707102094  0.926168120

