%NProcShared=1
#p b3lyp/6-311++G(3df,2p) freq symmetry=Loose

 b3lyp opt

1 4
C -0.860465323 -0.732347504  0.000051614
C -0.859616615  0.733332544 -0.000104514
C  0.525042053  1.111075876 -0.000078884
C  1.247480957 -0.000727838  0.000073949
C  0.523754949 -1.111694153  0.000157890
H -1.729388284 -1.376530537  0.000078910
H -1.727792961  1.378521442 -0.000214563

