%NProcShared=1
#p b3lyp/6-311++G(3df,2p) freq symmetry=Loose

 b3lyp opt

3 4
C  1.325726073 -0.359127641  0.069812900
C -0.000692874 -0.836782873 -0.000132567
C -1.326317919 -0.356905429 -0.069917897
C -0.716110475  0.908380328  0.164658785
C  0.717617660  0.907246627 -0.164340390
H  2.375649493 -0.790415463  0.063706873
H -2.376955070 -0.786453668 -0.063955837

