%NProcShared=4
#p b3lyp/6-311++G(3df,2p) freq IOp(2/17=3) IOp(2/18=3)

 b3lyp opt

3 2
C  0.493113143 -0.000521307 -0.075036006
C -0.520975134  1.080579962 -0.133946820
C -1.271422614  0.001395937  0.363992984
C -0.523298303 -1.079443925 -0.133851204
C  2.027226835 -0.002162154  0.131372048
H -0.611619739  2.148735140 -0.457687605
H -0.616240390 -2.147430307 -0.457497431

