%NProcShared=4
#p b3lyp/6-311++G(3df,2p) freq symmetry=Loose

 b3lyp opt

0 3
    C   -1.136910   -0.446610    0.181781
    C    0.224469   -0.265155    0.075482
    C    1.286996    0.649915    0.140971
    C    1.567330   -0.576924   -0.300830
    C   -1.940871    0.595569   -0.262375
    H    1.518250    1.659121    0.437848
    H   -1.524331   -1.399899    0.551981

