%NProcShared=1
#p b3lyp/6-311++G(3df,2p) freq symmetry=Loose

 b3lyp opt

1 2
C  1.019388870  0.665766969 -0.000073894
C  1.019472124 -0.665632035  0.000001497
C -0.505275487 -0.752093333  0.000055506
C -1.608836963 -0.000096876  0.000048469
C -0.505369542  0.752037584 -0.000029666
H  1.741773219  1.467723168 -0.000142576
H  1.741956760 -1.467497888  0.000023634

