%NProcShared=4
#p b3lyp/6-311++G(3df,2p) freq symmetry=Loose

 b3lyp opt

2 1
    C   -1.815541   -0.400962    0.000784
    C   -0.537157    0.015495   -0.001035
    C    0.828091    0.014750   -0.001453
    C    1.997032   -0.790754    0.000483
    C    0.316811    1.340097    0.000471
    H   -2.367991   -0.537996   -0.946146
    H   -2.363222   -0.538228    0.950541

