%NProcShared=1
#p b3lyp/6-311++G(3df,2p) freq symmetry=Loose

 b3lyp opt

0 1
C  0.857310079  0.000216569  0.046938553
C -0.370608052  0.683688193 -0.320214362
C -1.569427892  0.000034481  0.261098752
C -0.370341052 -0.684730807 -0.318352362
C  2.154632902  0.000640295  0.172314314
H -1.772958837  0.001450409  1.330876136
H -2.436440981 -0.001009177 -0.381580866

