%NProcShared=4
#p b3lyp/6-311++G(3df,2p) freq IOp(2/17=3) IOp(2/18=3)

 b3lyp opt

3 4
C  2.167254999  0.783480000  0.000114097
C  1.334825997 -0.447603001  0.000056616
C -0.091663005 -0.181502002 -0.000007377
C -1.346970005  0.038794999 -0.000063893
C -2.621165986  0.173168004 -0.000122556
H  1.671799422 -1.099158200 -0.881214320
H  1.671715576 -1.099183801  0.881340681

