%NProcShared=4
#p b3lyp/6-311++G(3df,2p) freq symmetry=Loose

 b3lyp opt

0 3
    C   -2.308860    0.586312    0.070733
    C   -1.227403    0.020816   -0.131296
    C   -0.000104   -0.747792    0.051399
    C    1.228329    0.019074   -0.131522
    C    2.308212    0.587247    0.070907
    H   -0.000821   -1.602846   -0.636518
    H   -0.000222   -1.191096    1.055200

