%NProcShared=1
#p b3lyp/6-311++G(3df,2p) freq symmetry=Loose

 b3lyp opt

0 3
C  0.893489588  0.616605545 -0.264695829
C  0.549767911 -0.812183360 -0.209403269
C -0.863360857 -0.465474875 -0.208978797
C -0.506787997  0.960161017 -0.264275217
C  0.036868066  0.149093952  0.953000115
H  1.125141258 -1.701606244 -0.017376078
H -1.784944782 -0.987622107 -0.016501955

