%NProcShared=1
#p b3lyp/6-311++G(3df,2p) freq symmetry=Loose

 b3lyp opt

2 1
C  1.450718958 -0.314675249 -0.000029439
C  0.000144711 -0.597865019 -0.000007415
C -1.450565919 -0.315374732  0.000023948
C -0.698883199  0.753874047  0.000027762
C  0.698520747  0.754210953  0.000002048
H  2.408897108 -0.839932275 -0.000055744
H -2.408490684 -0.841093720  0.000032901

