%NProcShared=1
#p b3lyp/6-311++G(3df,2p) freq symmetry=Loose

 b3lyp opt

3 2
C -0.698799981  0.000126578 -0.000387428
C  0.540129043  0.785269104  0.000064348
C  1.682747632  0.000005527  0.000431982
C  0.540049238 -0.785141891  0.000013316
C -2.009431912  0.000193196 -0.000838373
H -3.139049742  0.000250613 -0.001227036
H  2.810197496 -0.000051780  0.000819900

