%NProcShared=1
#p b3lyp/6-311++G(3df,2p) freq symmetry=Loose

 b3lyp opt

2 3
C -0.639928000 -0.025891000 -0.000265000
C  0.506340000  0.836350000 -0.000047000
C  1.637370787  0.023309146  0.000619450
C  0.536209847 -0.829891895  0.000416781
C -2.003817676 -0.088844223 -0.000785619
H -2.947221203  0.468407452 -0.001308711
H  2.730174703  0.041407204  0.001045365

