%NProcShared=4
#p b3lyp/6-311++G(3df,2p) freq IOp(2/17=3) IOp(2/18=3)

 b3lyp opt

2 3
C  0.567954529  0.015542247 -0.000037096
C -0.502478434  1.028018169  0.000123276
C -1.449244708 -0.034323044  0.000310382
C -0.451144616 -1.048587039  0.000162470
C  1.992942052  0.050768028 -0.000282562
H -0.528380683  2.122130691  0.000102429
H -0.422955196 -2.142643022  0.000182923

