%NProcShared=1
#p b3lyp/6-311++G(3df,2p) freq symmetry=Loose

 b3lyp opt

3 2
C  2.403194000 -0.286015000 -0.000029000
C  1.155209000  0.030763000  0.000056000
C -0.121843001  0.525856966  0.000196233
C -1.371993999 -0.071269983 -0.000003505
C -2.618367999 -0.381489984 -0.000113820
H  3.483334005 -0.581193868 -0.000109112
H -0.164366004  1.670043894  0.000552223

