%NProcShared=1
#p b3lyp/6-311++G(3df,2p) freq symmetry=Loose

 b3lyp opt

0 3
C  0.000023719 -1.052217987 -0.253878076
C -1.042240076  0.000203439 -0.197543127
C  0.000142395  1.052650018 -0.252864103
C  1.042368931  0.000085572 -0.196851940
C -0.000303325 -0.000978042  0.911747247
H -2.103839854  0.000884957 -0.032526077
H  2.103859118  0.000647047 -0.031130945

