%NProcShared=4
#p b3lyp/6-311++G(3df,2p) freq symmetry=Loose

 b3lyp opt

2 1
    C   -1.204102   -0.283790   -0.000368
    C    2.765075    0.148182   -0.001416
    C    1.400297    0.025153    0.001683
    C    0.181039   -0.105670    0.000571
    C   -2.310383    0.325227   -0.000329
    H   -3.343600    0.693272   -0.000486
    H   -1.647797   -1.348394   -0.001588

