%NProcShared=1
#p b3lyp/6-311++G(3df,2p) freq symmetry=Loose

 b3lyp opt

1 4
C  0.699948905  0.915829723 -0.107720972
C  0.865269783 -0.529631627 -0.240332705
C -0.867192427 -0.526460441 -0.240227297
C -0.696564849  0.918385972 -0.107636005
C -0.000574165 -0.354567434  0.903859986
H  1.548210602 -1.273502874 -0.623924879
H -1.552898570 -1.267826449 -0.623736198

