%NProcShared=1
#p b3lyp/6-311++G(3df,2p) freq symmetry=Loose

 b3lyp opt

0 3
C  0.603530000  0.002671000  0.000074000
C -0.483195000  1.044972000  0.000359000
C -1.396824015 -0.003123061 -0.000118605
C -0.477383945 -1.046342783 -0.000419873
C  1.909347968  0.001999874  0.000198071
H -0.472740150  2.118731413  0.000760182
H -0.460116944 -2.119793782 -0.000818301

