%NProcShared=1
#p b3lyp/6-311++G(3df,2p) freq symmetry=Loose

 b3lyp opt

1 2
C -0.412163999 -0.000058559  0.100834012
C  1.084143997 -0.000431243  0.422453963
C -1.556720709 -0.686487371 -0.118990066
C  1.988524990  0.000434400 -0.628260151
C -1.556637280  0.686893449 -0.117786779
H  1.358504509 -0.898130170  1.024461087
H  1.358613509  0.896178070  1.026033169

