%NProcShared=1
#p b3lyp/6-311++G(3df,2p) freq symmetry=Loose

 b3lyp opt

2 1
C  0.763131999  0.000012634  0.379154001
C -0.456001998 -0.780950324  0.069742998
C -1.539832001 -0.000039212 -0.179940999
C -0.456050998  0.780921676  0.069799998
C  1.927457998  0.000081403 -0.504304998
H -2.600288999 -0.000063019 -0.439242001
H  1.168056994 -0.000013106  1.432536007

