%NProcShared=1
#p b3lyp/6-311++G(3df,2p) freq symmetry=Loose

 b3lyp opt

1 2
C  0.773060965 -0.000694201  0.373399859
C -0.471543879 -0.799696462  0.119056492
C -1.505110936  0.000707383 -0.229179742
C -0.471069879  0.799656538  0.120984492
C  1.902535753  0.000062696 -0.532158006
H -2.545155244  0.001356682 -0.512103994
H  1.177921960 -0.002051127  1.399488837

