%NProcShared=1
#p b3lyp/6-311++G(3df,2p) freq symmetry=Loose

 b3lyp opt

1 4
C -0.614798000 -0.307612991 -0.000018596
C  0.494885000  1.007149996  0.000070088
C  1.414233000 -0.150761001 -0.000003386
C  0.461652000 -1.162062996 -0.000071843
C -1.897314000  0.085256993  0.000003964
H  0.424020753  1.584029813  0.920418638
H  0.424025246  1.584150174 -0.920203354

