%NProcShared=4
#p b3lyp/6-311++G(3df,2p) freq symmetry=Loose guess=Huckel

 b3lyp opt

3 2
    C   -1.190565    1.373803   -0.196325
    C   -0.625980   -0.014584    0.242453
    C    0.827912   -0.052080    0.046860
    C    2.084440   -0.055492   -0.071033
    C   -1.473853   -1.233855   -0.224355
    H    3.190576   -0.076441   -0.169228
    H   -0.928060   -0.028752    1.379657

