%NProcShared=4
#p b3lyp/6-311++G(3df,2p) freq IOp(2/17=3) IOp(2/18=3)

 b3lyp opt

3 4
C -1.871922958 -0.421744965  0.000324544
C -0.576510972  0.128483024  0.000075551
C  0.889152988  0.060301990 -0.000123604
C  2.061396976 -0.808486021 -0.000185562
C  0.299778959  1.257817966 -0.000183382
H -2.405820849 -0.649231726 -0.963872270
H -2.405548066 -0.649001201  0.964726706

