%NProcShared=1
#p b3lyp/6-311++G(3df,2p) freq symmetry=Loose

 b3lyp opt

0 3
C  0.704361001  0.000331533  0.287176009
C -0.467067995 -0.901707251 -0.088788956
C -1.501521994 -0.000011566 -0.014554954
C -0.467198995  0.901743749 -0.089881956
C  2.001886980  0.000072875 -0.295123164
H -2.565165982 -0.000177492 -0.160850854
H  0.943755011  0.001003400  1.367065089

