%NProcShared=1
#p b3lyp/6-311++G(3df,2p) freq symmetry=Loose

 b3lyp opt

0 1
C -1.900308553  0.683695088 -0.000086311
C -0.715971838  0.173072089 -0.000044743
C  0.000476745 -1.146677895 -0.000129484
C  0.715843144  0.173658983  0.000072681
C  1.899760849  0.685252718  0.000225336
H  0.000782354 -1.706900692 -0.926548872
H  0.000630493 -1.707102094  0.926168120

