%NProcShared=4
#p b3lyp/6-311++G(3df,2p) freq symmetry=Loose

 b3lyp opt

0 1
    C   -1.503959   -0.296232   -0.010136
    C   -0.562318    0.795299   -0.014840
    C    0.678398    1.032732    0.033147
    C    1.140258   -0.467292   -0.043126
    C   -0.311140   -0.813597    0.064730
    H    1.566382   -0.721380   -1.008760
    H    1.771130   -0.782658    0.781725

