%NProcShared=1
#p b3lyp/6-311++G(3df,2p) freq symmetry=Loose

 b3lyp opt

0 1
C  1.126804000  0.090627000  0.000055000
C -0.141855000  0.693237000  0.000234000
C -1.298386994  0.024184926  0.000090319
C -2.423868002 -0.574220977 -0.000036235
C  2.229689997 -0.392195964 -0.000090273
H -0.152128004  1.783057050  0.000508697
H  3.196422989 -0.834560869 -0.000222434

