%NProcShared=1
#p b3lyp/6-311++G(3df,2p) freq symmetry=Loose

 b3lyp opt

1 2
C -1.330159000  0.251020000  0.001256000
C -0.030846000  0.781879000  0.000063000
C  1.131389674  0.045736901 -0.000703458
C  2.221746133 -0.491706264 -0.001460546
C -1.636264743 -1.048549618  0.001828679
H  0.073369946  1.865127679 -0.000291078
H -2.212124707  0.904872089  0.001813985

