%NProcShared=1
#p b3lyp/6-311++G(3df,2p) freq symmetry=Loose

 b3lyp opt

2 1
C  0.502462040 -0.000075058  0.007218018
C -0.707055318 -0.781168197  0.117410262
C -1.769510019  0.000207432 -0.172345008
C -0.706867645  0.781296837  0.117493754
C  1.873805952 -0.000236809 -0.048274022
H  2.421611676  0.946560732 -0.064457928
H  2.421384214 -0.947164187 -0.064559121

