%NProcShared=4
#p b3lyp/6-311++G(3df,2p) freq symmetry=Loose

 b3lyp opt

2 1
    C   -2.408968    0.146445    0.000595
    C   -1.177272   -0.011110    0.000231
    C    0.094034   -0.205526    0.000216
    C    1.404532   -0.378597    0.000165
    C    2.355883    0.633889   -0.000239
    H   -3.491620    0.284653    0.000124
    H    1.885320   -1.392277    0.000640

