%NProcShared=4
#p b3lyp/6-311++G(3df,2p) freq symmetry=Loose

 b3lyp opt

3 2
    C   -1.433739   -0.299718   -0.000176
    C    2.478546    0.099134   -0.001228
    C    1.200542    0.007937    0.000256
    C   -0.057715   -0.108536   -0.000036
    C   -2.470689    0.499165    0.000118
    H    3.597710    0.177194   -0.002136
    H   -1.897615   -1.371686   -0.000757

