%NProcShared=4
#p b3lyp/6-311++G(3df,2p) freq IOp(2/17=3) IOp(2/18=3)

 b3lyp opt

1 4
C  0.525935000  0.188720000 -0.000060000
C -0.657330000  1.010278000 -0.000068000
C -1.366890987 -0.234129979  0.000099878
C -0.248592003 -1.094652004  0.000115796
C  1.892624992  0.142857988 -0.000140529
H -0.869820049  2.064990922 -0.000159616
H -0.004658984 -2.143439975  0.000204865

