%NProcShared=1
#p b3lyp/6-311++G(3df,2p) freq symmetry=Loose

 b3lyp opt

2 3
C  2.061369000 -0.509591000  0.000179000
C  1.019651000  0.167395000 -0.000059000
C -0.135171998  0.898707960 -0.000316686
C -1.236646000  0.059828993 -0.000069345
C -2.175128002 -0.770308965  0.000178432
H  2.993364983 -1.071485729  0.000377879
H -0.197621993  1.994676886 -0.000669688

