%NProcShared=4
#p b3lyp/6-311++G(3df,2p) freq IOp(2/17=3) IOp(2/18=3)

 b3lyp opt

1 4
C -2.558256982 -0.000008856  0.000006536
C -1.289303990 -0.000291462 -0.000110593
C  0.000014993 -0.000734156 -0.000259909
C  1.289336989 -0.000211874 -0.000221213
C  2.558285990  0.000637348 -0.000117821
H -3.629140000  0.000705000  0.000198000
H  3.629156000  0.001747000  0.000046000

