%NProcShared=1
#p b3lyp/6-311++G(3df,2p) freq symmetry=Loose

 b3lyp opt

0 1
C  1.303171629 -0.341913617 -0.123106561
C -0.000042194 -0.764696682 -0.000242346
C -1.303221379 -0.341901273  0.122946368
C -0.660693779  0.856373611 -0.191689154
C  0.660742194  0.856172063  0.192448588
H  2.254501196 -0.792232105  0.088699760
H -2.254587831 -0.791979120 -0.089205489

