%NProcShared=1
#p b3lyp/6-311++G(3df,2p) freq symmetry=Loose

 b3lyp opt

2 3
C  2.380469499 -0.513237097 -0.001163273
C  1.246268551 -0.030235087 -0.000634118
C  0.000034021  0.524656004 -0.000055072
C -1.246129591 -0.030340921  0.000633030
C -2.380482479 -0.512999899  0.001257177
H -0.000217464  1.683382157 -0.486908572
H  0.000277454  1.683477841  0.486570641

