%NProcShared=1
#p b3lyp/6-311++G(3df,2p) freq symmetry=Loose

 b3lyp opt

1 4
C  1.508018000 -0.115894998  0.675765151
C  0.248681000  0.436812998 -0.000083073
C -0.974317001 -0.399968988  0.000067815
C -2.146133999  0.190494985 -0.000065759
C  1.508036000 -0.116164998 -0.675676849
H -0.955619000 -1.492239993  0.000286286
H  0.089917000  1.520567002 -0.000301707

