%NProcShared=1
#p b3lyp/6-311++G(3df,2p) freq symmetry=Loose

 b3lyp opt

3 4
C  2.478752996  0.000191796  0.000059918
C  1.065575983  0.000083465  0.000042362
C -0.216237018 -0.000014795  0.000026439
C -1.519721001 -0.000114717  0.000010246
C -2.824648961 -0.000214750 -0.000005965
H  3.048797316  0.967974010  0.000070002
H  3.048945684 -0.967503010  0.000063998

