%NProcShared=1
#p b3lyp/6-311++G(3df,2p) freq symmetry=Loose

 b3lyp opt

2 1
C  0.998134763  0.679072010 -0.000007406
C  0.998114237 -0.679111994 -0.000019096
C -0.520485368 -0.785270040 -0.000024873
C -1.543071999  0.000018411 -0.000021388
C -0.520461633  0.785275955 -0.000011354
H  1.763333528  1.457660945  0.000001746
H  1.763289470 -1.457724057 -0.000023348

