%NProcShared=1
#p b3lyp/6-311++G(3df,2p) freq symmetry=Loose

 b3lyp opt

1 4
C -2.327808999 -0.567811994 -0.000116529
C -1.238618999 -0.018246997 -0.000021380
C -0.000026001  0.699515993  0.000099129
C  1.238345999 -0.018606006  0.000029216
C  2.327879001 -0.567502996 -0.000021299
H  0.000059598  1.416126129  0.851330185
H  0.000094402  1.416351873 -0.850941830

