%NProcShared=1
#p b3lyp/6-311++G(3df,2p) freq symmetry=Loose

 b3lyp opt

1 4
C -1.446707114  0.641323024 -0.000630159
C -1.447624063 -0.639108639 -0.000727984
C -0.112521639  0.000151375 -0.000089315
C  1.167499832 -0.000765323  0.000476305
C  2.459351620 -0.001690494  0.001047152
H -1.858826529  1.638246314 -0.000972741
H -1.861171107 -1.635440622 -0.000750249

