%NProcShared=4
#p b3lyp/6-311++G(3df,2p) freq symmetry=Loose

 b3lyp opt

0 3
    C   -0.596431   -0.408458    0.000464
    C    0.306462    1.006162    0.000162
    C    1.419038    0.010194   -0.000461
    C    0.658008   -1.090439    0.000099
    C   -1.835159   -0.041165   -0.000352
    H    0.144759    1.571066    0.913382
    H    0.143727    1.571166   -0.912851

