%NProcShared=1
#p b3lyp/6-311++G(3df,2p) freq symmetry=Loose

 b3lyp opt

0 3
C  2.401052994 -0.000459055 -0.000271038
C  1.075934986 -0.000287767 -0.000144945
C -0.191125029 -0.000123985 -0.000024378
C -1.486951994  0.000043517  0.000098928
C -2.784884958  0.000211290  0.000222433
H  2.957759567  0.928339002 -0.000326999
H  2.957519433 -0.929401002 -0.000321001

