%NProcShared=1
#p b3lyp/6-311++G(3df,2p) freq symmetry=Loose

 b3lyp opt

1 2
C  0.535762988 -0.000023867 -0.000023454
C -0.695098482 -0.766567332 -0.000025799
C -1.792482973  0.000114245  0.000057349
C -0.695007528  0.766665623  0.000064322
C  1.848101993 -0.000101715 -0.000068999
H  2.396226897  0.933545328 -0.000033139
H  2.396116122 -0.933813781 -0.000142900

