%NProcShared=4
#p b3lyp/6-311++G(3df,2p) freq IOp(2/17=3) IOp(2/18=3)

 b3lyp opt

1 2
C -1.787729701 -0.851516658  0.003001336
C -0.695280194 -0.075468336 -0.000158533
C  0.002034902  1.258105729 -0.006000843
C  0.695182098 -0.077637157  0.000337263
C  1.785202829 -0.857089661  0.004275334
H  0.002571269  1.815062401  0.926119373
H  0.003224492  1.806531610 -0.943165054

