%NProcShared=4
#p b3lyp/6-311++G(3df,2p) freq symmetry=Loose

 b3lyp opt

0 1
    C    1.070487   -0.000694    0.000037
    C    2.384885   -0.001055   -0.000513
    C   -0.190032   -0.000049    0.000515
    C   -1.485807    0.000373    0.000597
    C   -2.763816    0.000980   -0.000708
    H    2.952372   -0.926288   -0.000733
    H    2.952837    0.923862   -0.000740

