%NProcShared=1
#p b3lyp/6-311++G(3df,2p) freq symmetry=Loose

 b3lyp opt

3 4
C  0.496179000  0.007031000 -0.000208000
C -0.710776000 -0.824421000 -0.000340000
C -1.859961043  0.000055095  0.000281505
C -0.699353884  0.823870743  0.000419667
C  1.943787964 -0.003571921 -0.000515635
H  2.495919816  0.963124406 -0.000184167
H  2.485997736 -0.975286416 -0.001078278

