%NProcShared=4
#p b3lyp/6-311++G(3df,2p) freq symmetry=Loose

 b3lyp opt

1 4
    C   -0.565526   -0.062083    0.082412
    C    0.654541    0.830844    0.056555
    C    1.538833   -0.166188   -0.378112
    C    0.556078   -0.893264    0.298428
    C   -1.870943   -0.090246   -0.113999
    H   -2.732758    0.536789   -0.276667
    H    0.854865    1.748831    0.604962

