%NProcShared=1
#p b3lyp/6-311++G(3df,2p) freq symmetry=Loose

 b3lyp opt

1 2
C -2.217413000 -0.390674000  0.000007000
C -1.106638000  0.099668000  0.000025000
C  0.125326000  0.694178998  0.000047623
C  1.306531000 -0.008963997  0.000002503
C  2.394420000 -0.553634000 -0.000033652
H -3.195030001 -0.827521993 -0.000009120
H  0.178224001  1.783909993  0.000104440

