%NProcShared=1
#p b3lyp/6-311++G(3df,2p) freq symmetry=Loose

 b3lyp opt

2 1
C -0.670607000  0.000578000  0.000214000
C  0.521949000  0.799932000 -0.000619000
C  1.635166609 -0.000250430 -0.000713043
C  0.521526280 -0.799943692  0.000088366
C -1.954117873 -0.000022860  0.000730509
H -3.052727590 -0.000784549  0.001172719
H  2.726355398 -0.000757662 -0.001151707

