%NProcShared=4
#p b3lyp/6-311++G(3df,2p) freq symmetry=Loose

 b3lyp opt

1 4
    C   -2.313901    0.136463    0.000037
    C   -1.093947   -0.058636    0.000348
    C    0.173866   -0.312012    0.000393
    C    1.521429   -0.440950    0.000419
    C    1.917240    0.847011   -0.000276
    H   -3.371723    0.301973   -0.000052
    H    2.140736   -1.337946   -0.000865

