%NProcShared=1
#p b3lyp/6-311++G(3df,2p) freq symmetry=Loose

 b3lyp opt

2 3
C -1.405107061  0.666992141  0.000163050
C -1.404960028 -0.667309928  0.000167946
C -0.178417977 -0.000023728  0.000061827
C  1.177245995  0.000125659 -0.000052751
C  2.433122082  0.000264049 -0.000158895
H -1.865915291  1.657937963  0.000198350
H -1.865549854 -1.658357283  0.000210521

