%NProcShared=1
#p b3lyp/6-311++G(3df,2p) freq symmetry=Loose

 b3lyp opt

2 4
C -1.184352798  0.231527963  0.048034612
H -1.795386346  1.129575669 -0.151235432
C  1.184460024  0.231308040  0.046931408
H  1.795474440  1.129242290 -0.152907770
C -0.000058278 -0.560659001 -0.034871004
H -0.000171482 -1.671876999 -0.056422994

