%NProcShared=4
#p b3lyp/6-311++G(3df,2p) freq symmetry=Loose

 b3lyp opt

3 1
    C    0.038515   -0.404309    0.001762
    H    0.101380   -1.560989    0.001950
    C    1.742774    0.315880   -0.001218
    H   -1.806017    0.456042    0.962984
    C   -1.196084    0.198152    0.000577
    H   -1.804536    0.450639   -0.964614

