%NProcShared=1
#p b3lyp/6-311++G(3df,2p) freq symmetry=Loose

 b3lyp opt

2 2
C -0.001275216 -1.252980143  0.000000000
H  0.950639102 -1.836411157  0.000000000
H -0.954463771 -1.834327023  0.000000000
C  0.000191050  0.087330981 -0.000000000
C  0.001589662  1.365800152 -0.000000000
H  0.002797717  2.470081291 -0.000000000

