%NProcShared=4
#p b3lyp/6-311++G(3df,2p) freq symmetry=Loose

 b3lyp opt

3 3
    C    0.001879   -1.373127   -0.000000
    H    1.001910   -1.946006    0.000000
    H   -0.996914   -1.948250    0.000000
    C    0.000255    0.109638   -0.000000
    C   -0.002170    1.472379   -0.000000
    H   -0.003962    2.638720    0.000000

