%NProcShared=4
#p b3lyp/6-311++G(3df,2p) freq symmetry=Loose

 b3lyp opt

0 4
    C    0.000000    0.419984    0.000000
    H    0.000613    1.516411    0.000000
    C    1.236659   -0.147678    0.000000
    H    1.669750   -1.134126    0.000000
    C   -1.236795   -0.147051    0.000000
    H   -1.669545   -1.133816    0.000000

