%NProcShared=4
#p b3lyp/6-311++G(3df,2p) freq symmetry=Loose

 b3lyp opt

3 3
    C   -1.696955    0.113181    0.001191
    H   -2.190821    1.126275    0.004314
    H   -2.392186   -0.791234   -0.549415
    H   -2.371433   -0.809570    0.544044
    C   -0.344615   -0.009734   -0.000707
    C    0.951557   -0.014877   -0.000017
    C    2.249085   -0.009482   -0.000291

