%NProcShared=4
#p b3lyp/6-311++G(3df,2p) freq IOp(2/17=3) IOp(2/18=3)

 b3lyp opt

2 2
C -0.758598000  0.342580001  0.000051522
H -1.139959000  0.929564002  0.917435455
H -1.139933000  0.929726002 -0.917239545
C -1.861096001 -0.530171007 -0.000041165
C  0.641286001  0.071223003  0.000047400
C  1.868086001 -0.139782994  0.000046154
H  2.942956995 -0.323443034  0.000045169

