%NProcShared=4
#p b3lyp/6-311++G(3df,2p) freq symmetry=Loose

 b3lyp opt

1 1
    C    0.636565   -0.985204    0.000000
    H    1.652519   -1.345949   -0.000000
    C   -0.630538   -0.988682    0.000000
    H   -1.645252   -1.352822   -0.000000
    C   -0.000015    0.372715   -0.000000
    C   -0.005502    1.604681    0.000000
    H   -0.010594    2.676505   -0.000000

