%NProcShared=4
#p b3lyp/6-311++G(3df,2p) freq symmetry=Loose

 b3lyp opt

2 2
    C    0.424686    0.313754    0.240053
    H    0.780788    1.030476    1.049803
    C    1.637365   -0.146737   -0.272218
    C   -0.996714    0.491162   -0.206329
    C   -0.785637   -0.750567    0.092043
    H   -1.634138    1.375699   -0.338399
    H   -0.818178   -1.845777    0.157961

