%NProcShared=4
#p b3lyp/6-311++G(3df,2p) freq symmetry=Loose

 b3lyp opt

2 4
    C   -0.510915    1.019883    0.040804
    C   -1.010983   -0.275827   -0.114134
    H   -1.959124   -0.756422    0.220623
    C    0.470547   -0.879757    0.003903
    H    0.847268   -1.909025    0.070434
    C    0.929376    0.427623    0.078560
    H    1.841853    0.913268   -0.349921

