%NProcShared=1
#p b3lyp/6-311++G(3df,2p) freq symmetry=Loose

 b3lyp opt

1 1
C -0.005095136  1.032150375  0.408632011
C -0.893663672  0.076734467 -0.200431608
H -1.795452872  0.162207634 -0.795439036
C  0.004580414 -0.935280666  0.149859995
H  0.009283973 -1.896739147  0.644537983
C  0.892866023  0.085511004 -0.200360396
H  1.793819354  0.179840354 -0.795295964

