%NProcShared=4
#p b3lyp/6-311++G(3df,2p) freq IOp(2/17=3) IOp(2/18=3)

 b3lyp opt

3 3
C  1.135041218 -0.001659373  0.000784469
C -0.082914554 -0.806936201  0.000135889
H  2.032374041 -0.002761632  0.840556967
H  2.033511340 -0.003130014 -0.837770559
C -0.080601832  0.807104145 -0.000216815
C -1.251345572  0.001759675 -0.000833387
H -2.386955499  0.003386697 -0.001603277

