%NProcShared=4
#p b3lyp/6-311++G(3df,2p) freq symmetry=Loose

 b3lyp opt

1 3
    C    0.592552   -0.974695    0.000000
    H    1.488647   -1.577654    0.000000
    C   -0.747522   -0.880725    0.000000
    H   -1.716993   -1.357670    0.000000
    C    0.000000    0.285531    0.000000
    C    0.057362    1.654797    0.000000
    H    0.813995    2.425871    0.000000

