%NProcShared=1
#p b3lyp/6-311++G(3df,2p) freq symmetry=Loose

 b3lyp opt

3 1
C  0.000136987 -1.957911001  0.000000000
H  0.978902709 -2.530972125  0.000000000
H -0.978546306 -2.531112886  0.000000000
C  0.000033756 -0.522350998  0.000000000
C -0.000057337  0.744403002 -0.000000000
C -0.000151110  2.048437998 -0.000000000
H -0.000232957  3.186613996 -0.000000000

