%NProcShared=4
#p b3lyp/6-311++G(3df,2p) freq symmetry=Loose

 b3lyp opt

0 4
    C    0.144363   -0.001347    0.482863
    H    0.137816   -0.002879    1.574779
    C   -1.125426    0.644712   -0.202764
    C   -1.126074   -0.643508   -0.203295
    C    1.441561    0.000190   -0.187239
    H    1.928120    0.930196   -0.451107
    H    1.927524   -0.927603   -0.461064

