%NProcShared=1
#p b3lyp/6-311++G(3df,2p) freq symmetry=Loose

 b3lyp opt

1 3
C  0.001063247 -0.619327561  0.756379059
C  0.866707695 -0.210500944 -0.284380476
H  1.637560369 -0.495543073 -0.983137109
C -0.001323677  0.887001733  0.081405922
H -0.002860989  1.931737068  0.349936993
C -0.866147973 -0.213122262 -0.284102502
H -1.636358886 -0.500495583 -0.982611928

