%NProcShared=4
#p b3lyp/6-311++G(3df,2p) freq IOp(2/17=3) IOp(2/18=3)

 b3lyp opt

0 2
C  0.000063528 -0.958420005  0.268237995
C -1.044630619 -0.082359065 -0.177998917
C -0.000054780  0.864721993  0.024603993
H -0.000168522  1.714359035  0.707009035
C  1.044692427 -0.082202926 -0.177845075
H  2.119940333 -0.082238569 -0.164343401
H -2.119880484 -0.082555419 -0.164655588

