%NProcShared=4
#p b3lyp/6-311++G(3df,2p) freq symmetry=Loose

 b3lyp opt

3 3
    C   -0.225345    0.069810   -0.000737
    C   -0.980205    1.195409   -0.001649
    C   -0.997590   -1.256464    0.002992
    C    1.285599    0.075174   -0.000985
    H    1.801395    1.055300   -0.001506
    H    1.849934   -0.776888    0.665302
    H    1.847735   -0.782008   -0.660707

