%NProcShared=1
#p b3lyp/6-311++G(3df,2p) freq symmetry=Loose

 b3lyp opt

3 1
C -0.801899000 -0.415305000  0.000020000
H -1.098122000 -1.532853000 -0.000483000
C -2.102901999  0.501086073  0.000425517
C  0.468947000 -0.097120020  0.000168549
C  1.815006000  0.173519955  0.000296094
H  2.237917999  1.230761897  0.000772592
H  2.584052000 -0.670896983 -0.000079507

