%NProcShared=1
#p b3lyp/6-311++G(3df,2p) freq symmetry=Loose

 b3lyp opt

2 4
C  0.314911417  0.832788394  0.224414633
H  0.678369174  1.793803213  0.614977682
C -0.000480405 -0.000136948 -0.981867092
C -0.878466682 -0.143707439  0.225145683
C  0.563892548 -0.688955447  0.224517785
H -1.892120491 -0.309530549  0.616552336
H  1.214664774 -1.483973395  0.615199868

