%NProcShared=1
#p b3lyp/6-311++G(3df,2p) freq symmetry=Loose

 b3lyp opt

0 4
C -1.672130724 -0.281780022  0.000676188
H -2.169357731 -0.528936021 -0.928734065
H -2.168620731 -0.528994021  0.930464935
C -0.424014849  0.483733988  0.000205307
H -0.479545064  1.574345005  0.000261342
C  0.813226822 -0.061365986 -0.000302150
C  2.085838711 -0.226656977 -0.000811779

