%NProcShared=1
#p b3lyp/6-311++G(3df,2p) freq symmetry=Loose

 b3lyp opt

0 4
C -0.789859992  0.490808982 -0.000158745
H -1.023625986  1.094527968  0.883842118
H -1.023473986  1.094187968 -0.884431882
C -1.721874998 -0.714684004 -0.000007071
C  0.613271010  0.122092977  0.000032763
C  1.772956981 -0.186942957  0.000191870
H  2.800152955 -0.456368900  0.000331972

