%NProcShared=4
#p b3lyp/6-311++G(3df,2p) freq symmetry=Loose

 b3lyp opt

0 2
    C    0.002191   -0.000249   -0.004422
    C   -1.194495    0.678258    0.000632
    C   -1.194894   -0.678118    0.000601
    C    1.466367   -0.000503   -0.003323
    H    1.851971    0.870283   -0.533888
    H    1.819427    0.046677    1.028963
    H    1.853589   -0.913286   -0.456003

