%NProcShared=4
#p b3lyp/6-311++G(3df,2p) freq symmetry=Loose

 b3lyp opt

1 1
    C   -0.522609   -0.545239    0.220979
    H   -0.820212   -1.306291    0.944914
    C   -1.265159    0.483060   -0.222034
    C    0.866580   -0.683562   -0.421607
    C    0.776727    0.579119    0.169745
    H    0.407256    1.394279   -0.502132
    H    1.283338    0.913783    1.074827

