%NProcShared=4
#p b3lyp/6-311++G(3df,2p) freq symmetry=Loose

 b3lyp opt

1 3
    C    0.000010   -1.887542    0.000000
    H    0.932564   -2.449319    0.000000
    H   -0.932523   -2.449349    0.000000
    C    0.000000   -0.538227    0.000000
    C   -0.000027    0.734938    0.000000
    C    0.000003    1.995986    0.000000
    H    0.000046    3.067740    0.000000

