%NProcShared=4
#p b3lyp/6-311++G(3df,2p) freq symmetry=Loose

 b3lyp opt

0 4
    C    0.793150   -0.605988   -0.538642
    C   -0.274522   -0.288779    0.429661
    H   -0.315063   -0.791508    1.391723
    C    1.107519    0.470823    0.081189
    H    1.670504    1.356862    0.302431
    C   -1.546096    0.227384   -0.080046
    H   -1.835747    0.614010   -1.047126

