%NProcShared=4
#p b3lyp/6-311++G(3df,2p) freq symmetry=Loose

 b3lyp opt

1 3
    C    1.383772   -0.775953    0.000000
    H    1.982346    0.126719    0.000000
    H    1.893935   -1.731654    0.000000
    C    0.000000   -0.721258    0.000000
    H   -0.592504   -1.631376    0.000000
    C   -0.660566    0.484324    0.000000
    C   -1.270502    1.552272    0.000000

