%NProcShared=4
#p b3lyp/6-311++G(3df,2p) freq symmetry=Loose

 b3lyp opt

0 2
    C   -0.000823   -1.865066   -0.000000
    H    0.921761   -2.440984   -0.000000
    H   -0.923827   -2.440310   -0.000000
    C   -0.000348   -0.562390    0.000000
    C    0.000038    0.752226    0.000000
    C    0.000428    1.981258   -0.000000
    H    0.000770    3.042720   -0.000000

