%NProcShared=4
#p b3lyp/6-311++G(3df,2p) freq symmetry=Loose

 b3lyp opt

1 3
    C   -1.229478    1.215172    0.000000
    H   -1.640334    2.217011    0.000000
    C    0.000000    0.625166    0.000000
    H    0.896395    1.246792    0.000000
    C    0.137424   -0.777780    0.000000
    H   -0.729531   -1.450509    0.000000
    C    1.337632   -1.398107    0.000000

