%NProcShared=4
#p b3lyp/6-311++G(3df,2p) freq symmetry=Loose

 b3lyp opt

0 2
    C    0.369439   -1.826579   -0.000000
    H    0.708019   -2.832775    0.000000
    C    0.000089   -0.683422   -0.000000
    C   -0.489332    0.651231   -0.000000
    H   -1.577960    0.759490    0.000000
    C    0.250832    1.736963   -0.000000
    H    0.083302    2.801322    0.000000

