%NProcShared=4
#p b3lyp/6-311++G(3df,2p) freq symmetry=Loose

 b3lyp opt

1 3
    C    0.755865    0.463113   -0.006622
    H    1.064070    1.172372   -0.790303
    H    1.127126    0.858565    0.971723
    C    1.760295   -0.670616   -0.024678
    C   -0.615538    0.127293    0.005718
    C   -1.793579   -0.184866   -0.003472
    H   -2.833456   -0.440479   -0.007098

