%NProcShared=4
#p b3lyp/6-311++G(3df,2p) freq symmetry=Loose

 b3lyp opt

1 1
    C   -0.303542   -0.015026   -0.000531
    C   -0.373535    1.326823   -0.000121
    C   -1.379165   -0.813288    0.000671
    C    1.267190   -0.315373   -0.000049
    H    1.813851    0.631401   -0.000398
    H    1.460009   -0.864493    0.918277
    H    1.460572   -0.865426   -0.917704

