%NProcShared=4
#p b3lyp/6-311++G(3df,2p) freq symmetry=Loose

 b3lyp opt

2 2
    C   -0.843129   -0.380494   -0.065496
    H   -1.230310   -1.433426   -0.175380
    C   -1.929821    0.503393    0.082198
    C    0.460377   -0.115607   -0.012768
    C    1.744738    0.146216    0.016744
    H    2.167163    1.094028   -0.379405
    H    2.470965   -0.583525    0.436977

