%NProcShared=1
#p b3lyp/6-311++G(3df,2p) freq symmetry=Loose

 b3lyp opt

3 3
C -1.715725687 -0.272942287 -0.000666371
H -2.253901691 -0.496629283 -0.974488029
H -2.254738691 -0.495863283  0.972867971
C -0.438827839  0.405274853 -0.000384322
H -0.597610774  1.557212793 -0.000905689
C  0.866039843  0.018638143  0.000328613
C  2.139555612 -0.245091645  0.000979726

