%NProcShared=4
#p b3lyp/6-311++G(3df,2p) freq symmetry=Loose

 b3lyp opt

1 3
    C   -0.768708    1.344456    0.000000
    H   -1.849364    1.290827    0.000000
    H   -0.276868    2.309532    0.000000
    C    0.000000    0.184660    0.000000
    C    0.040383   -1.239381    0.000000
    H   -0.540010   -2.151373    0.000000
    C    1.172699   -0.531233    0.000000

