%NProcShared=1
#p b3lyp/6-311++G(3df,2p) freq symmetry=Loose

 b3lyp opt

0 2
C -1.118126688 -0.486047968 -0.000619967
H -1.664563689 -0.814797968 -0.883518258
H -1.665511689 -0.814894968  0.881654742
C  0.327346026 -1.053169997  0.000125171
C  0.444646868  1.007440986  0.000301403
C -0.809986794  0.994419021 -0.000373123
C  1.313821610 -0.151330040  0.000704523
H  2.383863120 -0.238180090  0.001274425

