%NProcShared=4
#p b3lyp/6-311++G(3df,2p) freq symmetry=Loose

 b3lyp opt

1 1
    H    0.382048   -1.769524    0.927796
    C   -0.521285    0.106918    0.000291
    C   -1.837909    0.093385    0.000819
    C    1.122867    0.033863   -0.000756
    C    0.586688    1.184941    0.000046
    H    0.603498    2.260724    0.001440
    C    0.421774   -1.205679    0.000524
    H    0.381366   -1.771420   -0.925555

