%NProcShared=1
#p b3lyp/6-311++G(3df,2p) freq symmetry=Loose

 b3lyp opt

2 2
C  2.472275356 -0.284307187  0.000000000
H  3.517098418 -0.583970523  0.000000000
C  1.265238241  0.005581985  0.000000000
C  0.000031471  0.483898981 -0.000000000
H -0.000185810  1.615203725 -0.000000000
C -1.264991473  0.005096023 -0.000000000
C -2.471917145 -0.285256782  0.000000000
H -3.516625021 -0.585321438  0.000000000

