%NProcShared=1
#p b3lyp/6-311++G(3df,2p) freq symmetry=Loose

 b3lyp opt

2 4
C -1.251046978 -0.413589993  0.000204912
H -1.820581979 -0.681069993 -0.912001826
H -1.820310979 -0.680979993  0.912607174
C  0.147884016 -0.854532995  0.000018886
C  1.352956974 -0.346356009 -0.000185164
H  2.417701944 -0.612945019 -0.000330155
C -0.745192976  1.002339008  0.000059939
C  0.699263965  0.941305989 -0.000151589

