%NProcShared=4
#p b3lyp/6-311++G(3df,2p) freq symmetry=Loose

 b3lyp opt

2 4
    C   -0.377197   -0.023398    0.437987
    H   -0.353028    0.074773    1.543034
    C   -1.463330    0.781146   -0.248581
    C   -1.679689   -0.563719   -0.118473
    C    1.020089   -0.350106   -0.171798
    H    1.455513   -1.308976    0.263270
    H    1.054808   -0.508605   -1.288328
    C    2.140579    0.446545    0.014536

