%NProcShared=1
#p b3lyp/6-311++G(3df,2p) freq symmetry=Loose

 b3lyp opt

1 3
C -2.002093713 -0.000746207  0.105496053
C -0.651190098 -0.000446475 -0.088388361
C  0.386198582  1.038606164 -0.064862057
H  0.362925065  2.114721692 -0.023585701
C  1.355336902  0.000767703  0.070541639
H  2.419622790  0.001611413  0.270897228
C  0.387172356 -1.038438836 -0.061288171
H  0.364907804 -2.114427296 -0.016308779

