%NProcShared=4
#p b3lyp/6-311++G(3df,2p) freq symmetry=Loose

 b3lyp opt

1 1
    C   -0.656681   -0.458952    0.390103
    C    0.445282    1.160833    0.304888
    H   -0.759370   -0.939708    1.355191
    C    0.741240   -0.146779   -0.024266
    C    2.005226   -0.420282   -0.321180
    C   -1.696034   -0.026961   -0.356326
    H   -1.563591    0.527081   -1.277622
    H   -2.711240   -0.234523   -0.036882

