%NProcShared=4
#p b3lyp/6-311++G(3df,2p) freq symmetry=Loose

 b3lyp opt

2 4
    C   -1.974836   -0.123797   -0.091860
    H   -2.875136    0.472589   -0.246807
    C   -0.608729   -0.059815    0.013731
    C    0.523468    0.883280    0.066415
    H    0.610361    1.897098    0.480403
    C    1.515320   -0.113423   -0.197313
    H    2.572631   -0.155036   -0.461428
    C    0.493468   -0.955354    0.246999

