%NProcShared=4
#p b3lyp/6-311++G(3df,2p) freq symmetry=Loose

 b3lyp opt

0 2
    C   -2.528447    0.075055    0.000000
    C   -1.244478   -0.207423    0.000000
    H   -1.305354   -1.315104    0.000000
    C    0.000000    0.454925    0.000000
    H    0.000247    1.534686    0.000000
    C    1.243922   -0.207857    0.000000
    H    1.304462   -1.315963    0.000000
    C    2.529111    0.068030    0.000000

