%NProcShared=4
#p b3lyp/6-311++G(3df,2p) freq symmetry=Loose

 b3lyp opt

3 3
    C    0.778527    0.836730    0.000664
    C    0.752494   -0.851386   -0.000809
    C    1.883373   -0.023540    0.000299
    C   -0.375185    0.010116   -0.000298
    C   -1.817324    0.125188   -0.000427
    H   -2.485896   -0.836241    0.510223
    H   -2.358060    1.092579   -0.002906
    H   -2.487357   -0.838985   -0.503893

