%NProcShared=4
#p b3lyp/6-311++G(3df,2p) freq symmetry=Loose

 b3lyp opt

3 1
    C   -0.629102    0.061782    0.229956
    H   -0.723391    0.156152    1.385861
    C   -1.134876    1.412532   -0.203898
    C   -1.490619   -1.151539   -0.018829
    C    0.897776   -0.338234   -0.257191
    H    1.147281   -1.432873   -0.029490
    H    1.070013   -0.235725   -1.378546
    C    2.107837    0.267533    0.253658

