%NProcShared=4
#p b3lyp/6-311++G(3df,2p) freq IOp(2/17=3) IOp(2/18=3)

 b3lyp opt

3 3
C -2.029838999 -0.000039459 -0.211654004
C -0.654776000 -0.000023137  0.026296001
C  0.402472836 -1.002620400  0.184609078
H  0.434180883 -2.028336876  0.614814135
C  1.345338999  0.000069792 -0.261545996
H  2.338113997  0.000155300 -0.765267990
C  0.402411164  1.002604578  0.184827920
H  0.434056120  2.028229076  0.615256854

