%NProcShared=4
#p b3lyp/6-311++G(3df,2p) freq symmetry=Loose

 b3lyp opt

3 1
    C    0.186450   -0.981171    0.049297
    C    1.302414   -0.138632    0.207376
    H    2.416204   -0.244954    0.275235
    C    0.389253    0.926765   -0.206490
    H    0.610347    1.629742   -1.066561
    C   -1.052956    0.521502    0.259990
    H   -1.682260    0.967288    1.085661
    C   -1.049209   -0.720477   -0.359229

