%NProcShared=4
#p b3lyp/6-311++G(3df,2p) freq symmetry=Loose

 b3lyp opt

2 2
    C    2.080925   -0.000016   -0.159982
    C    0.672851   -0.000405   -0.026135
    C   -0.413411    0.956360    0.159894
    H   -0.454058    1.938370    0.642762
    C   -1.373432    0.000332   -0.248735
    H   -2.407889    0.000690   -0.594426
    C   -0.414050   -0.956379    0.159805
    H   -0.455351   -1.938409    0.642579

