%NProcShared=4
#p b3lyp/6-311++G(3df,2p) freq symmetry=Loose

 b3lyp opt

0 2
    C   -1.556444    0.684259   -0.350238
    C   -0.334582    0.131170    0.100838
    C    1.115861    0.353071    0.285175
    H    1.381778    1.417519    0.333234
    H    1.459011   -0.105162    1.248177
    C    2.026834   -0.485249   -0.467424
    C   -1.411312   -0.637804    0.114530
    H   -1.882937   -1.585040    0.321308

