%NProcShared=4
#p b3lyp/6-311++G(3df,2p) freq symmetry=Loose

 b3lyp opt

0 4
    C   -0.532459    0.138520    0.000169
    C    0.890111   -0.014510    0.000120
    C    2.086536   -0.124591   -0.000070
    H    3.143315   -0.228891   -0.000266
    C   -1.025999    1.454104   -0.000089
    C   -1.373670   -0.952655   -0.000007
    H   -2.444954   -0.823589   -0.000377
    H   -0.965472   -1.952733   -0.000093

