%NProcShared=4
#p b3lyp/6-311++G(3df,2p) freq symmetry=Loose

 b3lyp opt

2 2
    C    0.396370   -0.011132    0.000383
    C   -1.007843    0.303132    0.001122
    H   -1.388617    1.387279    0.006336
    C    1.421926   -0.895725    0.001087
    C   -2.160367   -0.192699   -0.002485
    C    1.717338    0.428351   -0.001756
    H   -3.222983   -0.453937   -0.005382
    H    2.408226    1.270874   -0.004053

