%NProcShared=1
#p b3lyp/6-311++G(3df,2p) freq symmetry=Loose

 b3lyp opt

1 1
C -2.048613977 -0.000151396 -0.153212143
C -0.740225006 -0.000109432  0.002635040
C  0.414042768 -0.908480705  0.124834824
H  0.482369413 -1.831253870  0.695851741
C  1.389656963  0.000399293 -0.272432763
H  2.463740950  0.000616393 -0.363786685
C  0.413804246  0.908360060  0.126348087
H  0.481888723  1.830198644  0.698901396

