%NProcShared=1
#p b3lyp/6-311++G(3df,2p) freq symmetry=Loose

 b3lyp opt

3 3
C -1.826589036  0.680336659  0.001988181
C -1.828074965 -0.680786838 -0.001996074
C -0.581772999 -0.002910891  0.000008737
C  0.815104999  0.000020861  0.000040361
C  2.122397004  0.025018644  0.000135098
H  2.598433386 -0.608651328  0.882187287
H  2.598462546 -0.603476739 -0.885595950
H  2.596712039  1.082051844  0.003237030

