%NProcShared=4
#p b3lyp/6-311++G(3df,2p) freq symmetry=Loose

 b3lyp opt

1 1
    C   -0.877857   -0.796102    0.000006
    H   -1.334866   -1.191148   -0.907786
    H   -1.334815   -1.191127    0.907833
    C    0.609630   -0.816368   -0.000020
    C    1.500819    0.063427    0.000010
    C   -0.896735    0.830014    0.000000
    H   -1.759413    1.474062   -0.000020
    C    0.402326    0.870398   -0.000001

