%NProcShared=4
#p b3lyp/6-311++G(3df,2p) freq symmetry=Loose

 b3lyp opt

3 1
    H   -1.796478    1.724649   -0.170307
    C   -1.484973    0.648660   -0.116214
    C    1.131878    0.004856    0.432780
    H    1.461789    0.013470    1.521608
    C   -0.183851    0.000661    0.122447
    C    2.373693    0.000673   -0.532361
    C   -1.482873   -0.653649   -0.107211
    H   -1.793250   -1.730476   -0.144809

