%NProcShared=1
#p b3lyp/6-311++G(3df,2p) freq symmetry=Loose

 b3lyp opt

1 1
C  0.417961000  0.751505001 -0.000009212
C  1.528826000 -0.001550000  0.000005783
H  2.609083000 -0.000039000  0.000009931
C  0.416544000 -0.749548000  0.000012123
C -1.097063000  0.665115999 -0.000013833
H -1.812066000  1.473685999 -0.000028089
C -1.097084000 -0.665466000  0.000005084
H -1.812124000 -1.473996999  0.000013819

