%NProcShared=4
#p b3lyp/6-311++G(3df,2p) freq symmetry=Loose

 b3lyp opt

3 1
    C   -0.886299    0.017911    0.371861
    H   -1.156634    0.001075    1.481951
    C    0.732035    0.071290   -0.011640
    C   -1.839932   -0.902310   -0.351513
    C    1.873466   -0.520535   -0.022589
    H    2.863480   -1.050800   -0.031463
    C   -0.134378    1.138894   -0.152598
    H   -0.179854    2.215898   -0.452052

