%NProcShared=1
#p b3lyp/6-311++G(3df,2p) freq symmetry=Loose

 b3lyp opt

3 3
C  0.000001139 -0.404339065 -0.000401933
H  0.000163202 -1.504767609 -0.001733424
C -1.273253934  0.272206735  0.000547867
C -2.496142493 -0.179191231  0.000127710
H -1.472293226  1.404369741  0.001938249
C  1.273056884  0.272582053  0.000285928
H  1.471762696  1.404803685  0.001635394
C  2.496078347 -0.178455394 -0.000385840

