%NProcShared=4
#p b3lyp/6-311++G(3df,2p) freq symmetry=Loose

 b3lyp opt

1 1
    C   -2.341757   -0.157687   -0.000775
    H   -3.382779   -0.406271   -0.000627
    C   -1.162274    0.121131   -0.000413
    C    1.218361   -0.449803    0.000406
    C    2.446690    0.071751    0.001088
    C    0.160546    0.478485   -0.000078
    H    0.394348    1.541316    0.000094
    H    1.076263   -1.531530    0.000567

