%NProcShared=1
#p b3lyp/6-311++G(3df,2p) freq symmetry=Loose

 b3lyp opt

3 1
C  0.609864011  0.446250895  0.000276753
H  0.757963003  1.580345971  0.001157031
C  1.936806991 -0.062340913 -0.000231025
H  2.514906055 -0.192686895 -0.961097957
H  2.515061899 -0.194198652  0.960335819
C -1.787378975  0.963040755  0.000877792
C -0.723283977 -0.056572228 -0.000010732
C -1.001075047 -1.489824544 -0.001115863

