%NProcShared=4
#p b3lyp/6-311++G(3df,2p) freq symmetry=Loose

 b3lyp opt

0 2
    C   -1.582798    0.051615   -0.445291
    C    0.626327   -0.047424    0.027638
    C   -0.558871    0.830885    0.158318
    H   -0.682268    1.634917    0.875893
    C   -0.608127   -0.819600    0.135019
    H   -0.803518   -1.632413    0.826600
    C    1.909566   -0.103120   -0.116646
    H    2.769194    0.523356   -0.256725

