%NProcShared=1
#p b3lyp/6-311++G(3df,2p) freq symmetry=Loose

 b3lyp opt

1 1
C  0.244016000  0.015936000  0.000032000
C  1.016684000  1.140890000  0.000117000
C  1.503919965 -0.546933999  0.000180934
H  2.406225960  0.100577001  0.000283067
H  1.732262937 -1.613595998  0.000212085
C -1.099472965 -0.461495001 -0.000122169
C -2.131780997  0.358372000 -0.000245745
H -1.338681926 -1.527597003 -0.000145390

