%NProcShared=4
#p b3lyp/6-311++G(3df,2p) freq symmetry=Loose

 b3lyp opt

2 4
    C   -0.356252   -0.044919   -0.129788
    C    1.041458   -0.399067   -0.344780
    H    1.230945   -1.194683   -1.081891
    C   -1.427413    0.756233   -0.380339
    C    2.129540    0.209393    0.291521
    C   -1.620386   -0.322273    0.402437
    H    2.382471    0.985938    1.016790
    H   -2.215095   -0.987458    1.030800

