%NProcShared=4
#p b3lyp/6-311++G(3df,2p) freq symmetry=Loose

 b3lyp opt

3 1
    C    1.717658    0.642794   -0.172070
    C    1.716762   -0.657500   -0.110169
    C    0.541915    0.003103    0.060791
    C   -1.019673    0.022545    0.437093
    H   -1.268727   -0.855066    1.179684
    H   -1.268629    0.971813    1.085533
    C   -2.038667   -0.021344   -0.415885
    H   -2.972222   -0.054697   -1.064835

