%NProcShared=4
#p b3lyp/6-311++G(3df,2p) freq symmetry=Loose

 b3lyp opt

2 4
    C   -0.238905   -0.212815    0.350914
    H   -0.183586   -0.529210    1.417640
    C   -1.537766    0.586605    0.038719
    C   -1.457610   -0.719844   -0.295935
    H   -1.975673    1.587066    0.054991
    C    1.089244    0.031165   -0.260533
    H    1.245951    0.250777   -1.357511
    C    2.297255    0.096785    0.147648

