%NProcShared=4
#p b3lyp/6-311++G(3df,2p) freq symmetry=Loose

 b3lyp opt

0 2
    C   -2.515331    0.000042    0.000408
    C    0.066512   -0.000076   -0.000572
    C   -1.169869   -0.000031   -0.000494
    H   -3.073812    0.926892    0.000769
    H   -3.073726   -0.926795    0.000770
    C    1.407850    0.000001   -0.000050
    C    2.621561    0.000033    0.000299
    H    3.683204    0.000081    0.000915

