%NProcShared=4
#p b3lyp/6-311++G(3df,2p) freq symmetry=Loose

 b3lyp opt

2 4
    C    0.759539    0.000570    0.000167
    C   -0.439186    0.764494   -0.000004
    C    2.080497    0.001414   -0.000206
    H    3.167565   -0.004832   -0.000064
    C   -0.439101   -0.764231    0.000158
    C   -1.723758   -0.000129   -0.000329
    H   -2.298345   -0.000046    0.935834
    H   -2.297731   -0.000222   -0.936884

