%NProcShared=1
#p b3lyp/6-311++G(3df,2p) freq symmetry=Loose

 b3lyp opt

0 2
C  1.030367686 -0.000316176  0.264082592
C  0.000279474 -1.060229466  0.312739911
C -1.030502218 -0.001014910  0.263555905
C -0.000440361  1.058622690  0.318384420
H  2.095421094  0.000436351  0.117421272
H -2.095480790 -0.000984566  0.116350222
H  0.000495320  0.005219692 -1.945325954
C  0.000222367  0.002364322 -0.873503373

