%NProcShared=4
#p b3lyp/6-311++G(3df,2p) freq symmetry=Loose

 b3lyp opt

3 3
    C    0.435163    0.794268   -0.026166
    H    2.335750    0.144463    0.932476
    C   -0.725645    0.002257    0.008313
    C   -2.109487   -0.011772   -0.011140
    H   -3.234796    0.059635    0.052477
    C    0.440301   -0.783607    0.031631
    C    1.722092   -0.001363   -0.000445
    H    2.329371   -0.142915   -0.938502

