%NProcShared=4
#p b3lyp/6-311++G(3df,2p) freq symmetry=Loose

 b3lyp opt

2 4
    C    2.039641    0.000001   -0.175622
    C    0.675209    0.000005    0.015702
    C   -0.402755    0.976986    0.151624
    H   -0.470340    1.977362    0.589143
    C   -1.354732   -0.000005   -0.241017
    H   -2.387042   -0.000007   -0.592166
    C   -0.402747   -0.976986    0.151625
    H   -0.470313   -1.977363    0.589146

