%NProcShared=4
#p b3lyp/6-311++G(3df,2p) freq symmetry=Loose

 b3lyp opt

0 4
    C   -1.590344   -0.217389    0.000522
    C    0.543750   -0.145940   -0.000373
    C   -0.514199   -1.097598   -0.000199
    C    1.876758   -0.137896    0.000152
    H    2.626699    0.639671    0.000838
    C   -0.551638    0.965028   -0.000156
    H   -0.606796    1.581349   -0.896823
    H   -0.605864    1.581745    0.896307

