%NProcShared=1
#p b3lyp/6-311++G(3df,2p) freq symmetry=Loose

 b3lyp opt

2 4
C -1.524762038  0.045177938  0.000291495
C  0.492436987 -0.024922022 -0.000063414
C -0.520160000  1.050804000 -0.000204000
H -0.504065939  2.143065100 -0.000541591
C -0.589883882 -1.025437807  0.000445017
H -0.641215677 -2.116965470  0.000788958
C  1.867963912 -0.125751144 -0.000289183
H  2.791711871  0.454678789 -0.000639343

