%NProcShared=4
#p b3lyp/6-311++G(3df,2p) freq symmetry=Loose

 b3lyp opt

2 4
    H    0.469546    1.868709   -0.429801
    C    0.487581    0.862344    0.005733
    C   -0.686971   -0.072104    0.315170
    H   -1.019975   -0.187207    1.386489
    C    0.410850   -0.933851   -0.212399
    C   -2.038573    0.009380   -0.276751
    C    1.489496   -0.120465    0.015211
    H    2.576132   -0.153330   -0.038475

