%NProcShared=4
#p b3lyp/6-311++G(3df,2p) freq symmetry=Loose

 b3lyp opt

0 4
    C    0.153322    1.916442    0.000000
    H    0.925435    2.663831    0.000000
    C    0.000000    0.622791    0.000000
    C    0.852124   -0.626649    0.000000
    H    1.919649   -0.796998    0.000000
    C   -0.281576   -1.458412    0.000000
    H   -0.426470   -2.525310    0.000000
    C   -1.126972   -0.344425    0.000000

