%NProcShared=1
#p b3lyp/6-311++G(3df,2p) freq symmetry=Loose

 b3lyp opt

3 3
C -2.460960859  0.099651831  0.003844763
H -3.049512861  0.134929819 -0.952664841
H -3.047227861  0.148428819  0.961164159
C -1.102828866 -0.000243211  0.002927832
C  0.159432030 -0.111078820  0.002202534
C  1.514278887 -0.304207669  0.001947141
H  1.966828758 -1.374390430  0.008955250
C  2.581723806  0.506239852 -0.005043735

