%NProcShared=4
#p b3lyp/6-311++G(3df,2p) freq symmetry=Loose

 b3lyp opt

2 4
    C    1.478864    0.856649   -0.003550
    C    1.808289   -0.464426    0.004945
    C    0.473375   -0.093380   -0.000843
    C   -0.962111   -0.526500   -0.002385
    H   -1.169012   -1.237551   -0.849042
    H   -1.169052   -1.244093    0.838808
    C   -2.017920    0.399979    0.002210
    H   -2.344923    1.447707    0.007972

