%NProcShared=4
#p b3lyp/6-311++G(3df,2p) freq symmetry=Loose

 b3lyp opt

1 3
    C    0.398913   -0.908230    0.062363
    C    1.411637    0.000037   -0.001417
    H    2.463006   -0.000823   -0.239323
    C    0.398948    0.908244    0.061964
    C   -1.009357   -0.692291   -0.062440
    H   -1.805283   -1.397555    0.124578
    C   -1.009000    0.692281   -0.062231
    H   -1.804572    1.398131    0.125311

