%NProcShared=4
#p b3lyp/6-311++G(3df,2p) freq symmetry=Loose

 b3lyp opt

0 2
    C    0.194770    0.005396   -0.166221
    C   -0.783861   -1.072543   -0.254019
    C   -1.283463   -0.004261    0.499043
    C   -0.792274    1.071725   -0.251625
    C    1.652633    0.004494    0.099473
    H    2.170144   -0.249071   -0.828112
    H    1.995925    0.981125    0.434869
    H    1.907100   -0.760924    0.833331

