%NProcShared=4
#p b3lyp/6-311++G(3df,2p) freq IOp(2/17=3) IOp(2/18=3)

 b3lyp opt

2 4
C -0.860401002  0.738371001  0.000064864
H -1.258352001  1.204275001 -0.921847030
H -1.258225001  1.204199001  0.922069970
C -1.108163997 -0.760528002  0.000020149
C  0.154304999 -1.126561999 -0.000081890
C  0.734996004  0.861707997 -0.000039936
H  1.240094011  1.838309994 -0.000034472
C  1.291794995 -0.420740997 -0.000131143

