%NProcShared=1
#p b3lyp/6-311++G(3df,2p) freq symmetry=Loose

 b3lyp opt

3 1
C  0.818128836  0.773306018  0.000320654
C  0.801768862 -0.783607985  0.000397318
C  1.847104494 -0.015589944  0.000868926
C -0.472987742  0.008057971 -0.000271813
C -1.807879555  0.101326951 -0.000932484
H -2.393984879 -0.789210723  0.583683382
H -2.329416444  1.077523938 -0.001241729
H -2.393410406 -0.789274356 -0.586026871

