%NProcShared=4
#p b3lyp/6-311++G(3df,2p) freq symmetry=Loose

 b3lyp opt

2 2
    C    0.690584    0.030280   -0.000163
    C   -0.446368    0.834772    0.000074
    C    2.058342    0.088300   -0.000003
    H    2.993592   -0.486072    0.000551
    C   -0.410215   -0.834439   -0.000094
    C   -1.635121   -0.024957    0.000077
    H   -2.268450   -0.039119    0.910663
    H   -2.268470   -0.038543   -0.910560

