%NProcShared=4
#p b3lyp/6-311++G(3df,2p) freq symmetry=Loose

 b3lyp opt

1 1
    C   -1.339488   -1.662412    0.000000
    H   -0.473139   -2.311340    0.000000
    H   -2.318292   -2.125111    0.000000
    C   -1.226309   -0.307245    0.000000
    H   -2.096976    0.346254    0.000000
    C    0.000000    0.298496    0.000000
    C    1.109724    0.869031    0.000000
    C    2.270807    1.483830    0.000000

