%NProcShared=4
#p b3lyp/6-311++G(3df,2p) freq symmetry=Loose

 b3lyp opt

0 4
    C    2.054496   -0.000003   -0.023904
    C    0.667367   -0.000003    0.056702
    C   -0.401801   -1.027738   -0.012417
    H   -0.417619   -2.104669   -0.016850
    C   -1.370557    0.000003   -0.009776
    H   -2.450305    0.000007    0.039469
    C   -0.401794    1.027739   -0.012417
    H   -0.417606    2.104669   -0.016847

