%NProcShared=4
#p b3lyp/6-311++G(3df,2p) freq symmetry=Loose

 b3lyp opt

1 3
    C   -2.490448    0.119022    0.000000
    C   -1.225753   -0.241131    0.000000
    H   -1.318322   -1.347381    0.000000
    C    0.000000    0.453200    0.000000
    H    0.000984    1.532469    0.000000
    C    1.224480   -0.242778    0.000000
    H    1.316152   -1.349879    0.000000
    C    2.491918    0.105819    0.000000

