%NProcShared=4
#p b3lyp/6-311++G(3df,2p) freq symmetry=Loose

 b3lyp opt

1 3
    C    1.676341   -0.026755   -0.000330
    H    2.263925   -0.039639   -0.916415
    H    2.264731   -0.039514    0.915298
    C    0.406441   -0.773049    0.000367
    C   -0.713889    0.034872    0.000402
    C    0.443013    0.774202    0.000071
    C   -2.076610    0.095348    0.000003
    H   -2.940425   -0.548558   -0.001966

