%NProcShared=4
#p b3lyp/6-311++G(3df,2p) freq symmetry=Loose

 b3lyp opt

0 4
    C    0.656298   -0.050828    0.029790
    C   -0.453211   -0.885037   -0.174586
    C   -1.585145    0.041839    0.139367
    C   -0.384798    0.871950   -0.195961
    H    2.823806    0.607943    0.122021
    H   -1.879026    0.065290    1.186731
    H   -2.438627    0.067199   -0.531768
    C    2.015830   -0.101330    0.071894

