%NProcShared=4
#p b3lyp/6-311++G(3df,2p) freq symmetry=Loose

 b3lyp opt

0 4
    C    0.277417    1.750791    0.000000
    H    1.298467    2.103758    0.000000
    H   -0.514904    2.485468    0.000000
    C    0.000000    0.454004    0.000000
    C    0.817252   -0.819865    0.000000
    H    1.878032   -1.012029    0.000000
    C   -0.346184   -1.558097    0.000000
    C   -1.192085   -0.423032    0.000000

