%NProcShared=1
#p b3lyp/6-311++G(3df,2p) freq symmetry=Loose

 b3lyp opt

1 1
C -2.497393000  0.000041783 -0.000011941
C  0.070442000 -0.000008705 -0.000004383
C -1.171514997  0.000015714 -0.000008038
H -3.056803677  0.932136287 -0.000013588
H -3.056840329 -0.932030723 -0.000013588
C  1.393827999 -0.000034725 -0.000000487
C  2.610213999 -0.000058641  0.000003094
H  3.680183998 -0.000079678  0.000006243

