%NProcShared=4
#p b3lyp/6-311++G(3df,2p) freq symmetry=Loose

 b3lyp opt

3 3
    C   -0.005016    2.033496    0.000000
    H   -0.970945    2.581008    0.000000
    H    0.957505    2.587116    0.000000
    C    0.000000    0.598702    0.000000
    C   -0.796788   -0.622232    0.000000
    C    0.003918   -1.771256    0.000000
    H    0.008180   -2.897216    0.000000
    C    0.798762   -0.617195    0.000000

