%NProcShared=4
#p b3lyp/6-311++G(3df,2p) freq IOp(2/17=3) IOp(2/18=3)

 b3lyp opt

1 1
C  0.800987997 -0.079532992  0.000010622
C -0.439597993 -0.702216018 -0.000006548
C  2.106564001 -0.275204004 -0.000096375
C -0.242019993  1.004439982  0.000232435
H -0.418713553  1.504895693 -0.943528935
H -0.418600429  1.504618264  0.944162037
C -1.635829015 -0.399393963  0.000109644
H -2.703980996 -0.298033009  0.000188552

