%NProcShared=1
#p b3lyp/6-311++G(3df,2p) freq symmetry=Loose

 b3lyp opt

1 3
C  0.005893062 -1.190510096 -0.000000000
C  0.012488883 -2.501952032 -0.000000000
H  0.948246271 -3.058310116 -0.000000000
H -0.917624968 -3.067694406 -0.000000000
C -0.007051069  1.383161623  0.000000000
C -0.000537320  0.088037893  0.000000000
C -0.013302498  2.626128552  0.000000000
H -0.018688007  3.696925243  0.000000000

