%NProcShared=4
#p b3lyp/6-311++G(3df,2p) freq symmetry=Loose

 b3lyp opt

0 2
    C    0.207571   -0.309259   -0.389893
    H    0.104072   -0.697227   -1.396740
    C    1.457014   -0.617948    0.387647
    H    1.884115    1.546644   -0.316102
    C    1.536244    0.563589   -0.072356
    C   -1.052746    0.049622    0.248208
    H   -1.064581    0.360391    1.307164
    C   -2.302018    0.112361   -0.105994

