%NProcShared=1
#p b3lyp/6-311++G(3df,2p) freq symmetry=Loose

 b3lyp opt

0 4
C -0.818525000  0.089328000  0.000023000
C  0.705321000  0.160291000  0.000048000
C  1.863862000 -0.499912948 -0.000179221
H  2.800843000  0.041372913  0.000007732
H  1.895879000 -1.579586748 -0.000551463
C -0.127506000  1.263928854  0.000428223
C -1.910599000 -0.676281920 -0.000241351
H -2.972040000 -0.485906992 -0.000176084

