%NProcShared=4
#p b3lyp/6-311++G(3df,2p) freq symmetry=Loose

 b3lyp opt

2 2
    C   -1.281073   -1.773876    0.000000
    H   -0.413305   -2.430179    0.000000
    H   -2.275833   -2.219020    0.000000
    C   -1.159900   -0.369636    0.000000
    H   -2.054839    0.277945    0.000000
    C    0.000000    0.272253    0.000000
    C    1.096563    0.959231    0.000000
    C    2.135073    1.640570    0.000000

