%NProcShared=1
#p b3lyp/6-311++G(3df,2p) freq symmetry=Loose

 b3lyp opt

3 1
C -1.219719995 -0.000072502 -0.000020342
C  1.385670000 -0.000190276  0.000021358
C  0.108300003 -0.000132534  0.000000914
C  2.672912992 -0.000248464  0.000041961
H  3.794111985 -0.000299147  0.000059906
C -2.523964998 -0.000013545 -0.000041216
H -3.166538721 -0.945064003 -0.000051999
H -3.166453279  0.945095003 -0.000051001

