%NProcShared=4
#p b3lyp/6-311++G(3df,2p) freq symmetry=Loose

 b3lyp opt

2 4
    C   -2.074864   -0.515585    0.019262
    H   -1.903273   -1.454407   -0.514716
    H   -2.951479   -0.438622    0.673395
    C   -1.153628    0.573059   -0.057546
    H   -1.497724    1.616823   -0.034669
    C    0.186911    0.269917   -0.040748
    C    1.419041   -0.017230    0.012654
    C    2.681286   -0.264127    0.045710

