%NProcShared=4
#p b3lyp/6-311++G(3df,2p) freq symmetry=Loose

 b3lyp opt

2 4
    C   -0.381871   -0.192840    0.000077
    C   -1.473915   -1.049490   -0.000179
    C   -1.027913    1.054702    0.000083
    H   -2.123099    1.140329   -0.000229
    H   -0.468704    1.998191    0.000316
    C    1.039838   -0.520242    0.000151
    C    2.051495    0.447190   -0.000234
    H    1.346002   -1.574441    0.000525

