%NProcShared=4
#p b3lyp/6-311++G(3df,2p) freq symmetry=Loose

 b3lyp opt

2 4
    C   -1.823889    0.661358   -0.000037
    C   -1.830436   -0.655919    0.000294
    C   -0.540154   -0.001712   -0.000221
    C    0.778140   -0.016002   -0.000532
    C    2.144788   -0.014869   -0.000927
    H    2.581145   -0.473225    0.916204
    H    2.583716   -0.434969   -0.934184
    H    2.464446    1.071055    0.026513

