%NProcShared=1
#p b3lyp/6-311++G(3df,2p) freq symmetry=Loose

 b3lyp opt

1 3
C  1.985538404 -0.658362556 -0.002352750
H  2.793722069 -1.360132131 -0.003858774
C  1.084578638  0.190494486 -0.000626149
C -0.000144801  1.036722800  0.001326615
H -0.000189527  2.117236310  0.002101261
C -1.084798180  0.190402759  0.002065951
C -1.985687670 -0.658530471  0.002575366
H -2.793813234 -1.360368388  0.003075110

