%NProcShared=1
#p b3lyp/6-311++G(3df,2p) freq symmetry=Loose

 b3lyp opt

1 1
H -3.258115998 -0.922430008 -0.000269919
C  1.209161000  0.084503000 -0.000263000
C -1.209339000  0.084701000 -0.000157000
C -0.000051994  0.729605973 -0.000080197
H  0.000012009  1.820731958  0.000139385
C -2.299020997 -0.447702013 -0.000216402
C  2.298992995 -0.447562975 -0.000417824
H  3.258100949 -0.922279765 -0.000555380

