%NProcShared=1
#p b3lyp/6-311++G(3df,2p) freq symmetry=Loose

 b3lyp opt

2 2
C -2.133796210 -0.071244835  0.071198476
C -0.788797183 -0.040352161  0.049897282
C  0.564724179  0.001063518  0.002713133
C  1.792038924  0.654127063  0.218512046
C  1.812623516 -0.584688344 -0.278364522
H -2.432744618  0.338372665 -0.962446969
H -2.602508829  0.639235747  0.800969292
H -2.573574261 -1.102095298  0.102538687

