%NProcShared=4
#p b3lyp/6-311++G(3df,2p) freq symmetry=Loose

 b3lyp opt

3 3
    C   -0.337532    1.269855    0.035123
    C   -0.936997    0.031354   -0.009756
    C    0.495202    0.181458    0.002708
    C   -2.221729   -0.752630   -0.022332
    C    1.780407   -0.498666    0.013393
    H    2.639553    0.011398   -0.712969
    H    2.774586    0.168585    0.355061
    H    1.909750   -1.568209    0.243094

