%NProcShared=1
#p b3lyp/6-311++G(3df,2p) freq symmetry=Loose

 b3lyp opt

0 4
C -1.475819061  0.065110930 -0.000184905
C  0.521708977 -0.041740026  0.000124774
C -0.504466000  1.065500000  0.000163000
H -0.467909987  2.139756014  0.000370457
C -0.618732929 -1.028257920 -0.000248440
H -0.688260920 -2.100810909 -0.000461020
C  1.819086999 -0.144082001  0.000319732
H  2.707351084  0.460109095  0.000579636

