%NProcShared=1
#p b3lyp/6-311++G(3df,2p) freq symmetry=Loose

 b3lyp opt

1 3
C -1.252789991 -0.253010001  0.000130192
H -1.872086991 -0.411363001 -0.885597199
H -1.871899991 -0.411377001  0.885985801
C  0.023363009 -1.105485001 -0.000011250
C  1.235871976 -0.363422998 -0.000133372
H  2.242692982 -0.753779999 -0.000242732
C -0.501972989  1.039495999  0.000061153
C  0.745742994  0.945174000 -0.000071295

