%NProcShared=4
#p b3lyp/6-311++G(3df,2p) freq symmetry=Loose

 b3lyp opt

1 3
    H   -0.386408   -1.830197   -0.368688
    C   -0.479435   -0.847274    0.092464
    C    0.748973    0.109455    0.359789
    H    1.010544    0.248138    1.421244
    C   -0.418146    0.923166   -0.147771
    C    1.956550   -0.036870   -0.381427
    C   -1.488548    0.097880   -0.051294
    H   -2.540494    0.103908   -0.283128

