%NProcShared=4
#p b3lyp/6-311++G(3df,2p) freq symmetry=Loose

 b3lyp opt

1 3
    C    0.000000    0.476171    0.000000
    C   -0.805236   -0.679561    0.000000
    H   -1.877989   -0.528306    0.000000
    C    1.243938    1.127736    0.000000
    C   -0.247524   -1.904268    0.000000
    C    0.129144    1.874937    0.000000
    H    0.824868   -2.051479    0.000000
    H   -0.868816   -2.790310    0.000000

