%NProcShared=4
#p b3lyp/6-311++G(3df,2p) freq symmetry=Loose

 b3lyp opt

3 1
    C    2.583623   -0.114294   -0.000000
    H    3.695018   -0.227588    0.000000
    C    1.306717   -0.029853    0.000000
    C   -0.000080    0.123600    0.000000
    H    0.003926    1.378767   -0.000000
    C   -1.307302   -0.025701    0.000000
    C   -2.584244   -0.108888    0.000000
    H   -3.695715   -0.221236   -0.000000

