%NProcShared=4
#p b3lyp/6-311++G(3df,2p) freq symmetry=Loose

 b3lyp opt

0 4
    C   -0.177740    0.364914    0.387669
    H   -0.213606    0.762966    1.403305
    C    1.123485    0.048927   -0.067416
    C    2.348221   -0.228090   -0.106920
    C   -1.286483    0.696970   -0.510187
    C   -1.429272   -0.622385    0.017909
    H   -2.095801   -0.835304    0.851410
    H   -1.159862   -1.489673   -0.581049

