%NProcShared=4
#p b3lyp/6-311++G(3df,2p) freq IOp(2/17=3) IOp(2/18=3)

 b3lyp opt

2 4
C  2.551108871 -0.000281988 -0.000369933
H  3.111323325  0.945784490 -0.000432201
H  3.111529357 -0.946226434 -0.000428277
C  1.185296919 -0.000430718 -0.000222935
C -0.099663022 -0.000570644 -0.000084639
C -1.381074916 -0.000710184  0.000053276
C -2.667199848 -0.000850237  0.000191697
H -3.755960729 -0.000968798  0.000308877

