%NProcShared=1
#p b3lyp/6-311++G(3df,2p) freq symmetry=Loose

 b3lyp opt

0 4
C -1.653500001  0.076037106 -0.642261728
C -1.653495001  0.075094106  0.642404272
C -0.272834999 -0.415667149 -0.000294687
H -0.095338999 -1.487448175 -0.001082112
C  0.894208001  0.434672780  0.000324956
H  0.707645004  1.506717246  0.001112609
C  2.140966999 -0.013223805 -0.000008671
H  2.655620998 -0.960744529 -0.000706195

