%NProcShared=1
#p b3lyp/6-311++G(3df,2p) freq symmetry=Loose

 b3lyp opt

1 1
C -2.203776000  0.034713000 -0.000448000
H -2.800503000 -0.878237000 -0.000408000
H -2.733680012  0.986657012 -0.000655185
C -0.910600991 -0.024822009 -0.000254066
C  0.387282020 -0.088001019 -0.000058955
C  1.622303970  0.564849029  0.000028536
H  1.962366934  1.590431063 -0.000063837
C  1.700015008 -0.769934007  0.000223487

