%NProcShared=4
#p b3lyp/6-311++G(3df,2p) freq symmetry=Loose

 b3lyp opt

1 1
    C   -0.005630    1.922335    0.000000
    H   -0.940831    2.466678    0.000000
    H    0.924819    2.474821    0.000000
    C    0.000000    0.606808    0.000000
    C   -0.790778   -0.597228    0.000000
    C    0.004736   -1.700378    0.000000
    H    0.008084   -2.776188    0.000000
    C    0.792993   -0.592422    0.000000

