%NProcShared=1
#p b3lyp/6-311++G(3df,2p) freq symmetry=Loose

 b3lyp opt

2 4
C -1.666194001 -0.145680257  0.684359556
C -1.666224001 -0.153245257 -0.682610444
C -0.405056999  0.406379287 -0.002229228
H -0.381200996  1.516468056 -0.008373136
C  0.927580002 -0.220491564  0.001210715
H  1.077004006 -1.350076568  0.007458714
C  2.153565999  0.061330669 -0.000375834
H  3.242608996  0.142824989 -0.000850736

