%NProcShared=4
#p b3lyp/6-311++G(3df,2p) freq IOp(2/17=3) IOp(2/18=3)

 b3lyp opt

2 2
C  0.005733000  0.422885000 -0.000041000
C  0.279934000 -0.889230000 -0.000128000
C  0.293824986  1.767781003 -0.000040570
C  0.539307001 -2.144584000 -0.000210774
C -0.989549981  1.483479996  0.000149953
H  1.584034914 -2.516542981 -0.000386215
H -0.251669036 -2.919558992 -0.000113574
H -2.073056955  1.619175990  0.000323474

