%NProcShared=1
#p b3lyp/6-311++G(3df,2p) freq symmetry=Loose

 b3lyp opt

2 2
H -0.683088467 -1.901030902 -0.660500854
C  0.568865058 -0.000107163 -0.057018979
C -1.462594998  0.000582827  0.394675001
C -0.596830743  0.947624625 -0.130097015
H -0.681684333  1.901901016 -0.659995074
C -0.597530269 -0.946958416 -0.130348990
C  1.830099956 -0.000594148  0.103183984
H  2.914846752 -0.001011812  0.232128911

