%NProcShared=4
#p b3lyp/6-311++G(3df,2p) freq symmetry=Loose

 b3lyp opt

2 4
    C   -0.271340   -0.001327    0.011439
    C    1.040990   -0.000374   -0.081390
    C   -1.535211    0.661015    0.018591
    H   -1.994386    1.651110    0.024202
    C    2.431765    0.000328   -0.091212
    C   -1.533384   -0.667474    0.016151
    H    3.188425   -0.000796    0.703280
    H   -1.989559   -1.658960    0.017383

