%NProcShared=1
#p b3lyp/6-311++G(3df,2p) freq symmetry=Loose

 b3lyp opt

1 3
C -1.083323983 -0.496833987 -0.000229990
H -1.674978983 -0.750802987 -0.883892693
H -1.675250983 -0.751001987  0.883193307
C  0.291060015 -1.088506989 -0.000085068
C  1.307326982 -0.365677013  0.000152763
C -0.587107977  0.962969016  0.000010786
H -1.222497015  1.841681989  0.000011940
C  0.834295962  0.931603972  0.000226045

