%NProcShared=4
#p b3lyp/6-311++G(3df,2p) freq symmetry=Loose

 b3lyp opt

3 1
    C    2.380475   -0.648383    0.000000
    H    3.393266   -1.112285    0.000000
    C    1.195069   -0.142213    0.000000
    C    0.000000    0.553673    0.000000
    H    0.037952    1.656656    0.000000
    C   -1.252257   -0.160548    0.000000
    H   -1.337757   -1.276956    0.000000
    C   -2.672197    0.519568    0.000000

