%NProcShared=1
#p b3lyp/6-311++G(3df,2p) freq symmetry=Loose

 b3lyp opt

1 1
C -0.978595875 -0.640903111  0.395844311
C  0.346294677 -1.054459500 -0.059054013
H  0.587278171 -2.047077391 -0.421482174
C  1.118443936  0.118448404 -0.000482755
H  2.192050866  0.232147786 -0.000942695
C  0.117796776  1.103609887  0.058847982
H  0.145828939  2.124717640  0.421160895
C -1.091466179  0.421676234 -0.394964694

