%NProcShared=4
#p b3lyp/6-311++G(3df,2p) freq symmetry=Loose

 b3lyp opt

2 2
    C    0.000000    0.255400    0.000000
    C   -0.628874   -1.049681    0.000000
    H   -1.756368   -1.199838    0.000000
    C    1.105179    1.047751    0.000000
    H    2.186015    1.169996    0.000000
    C   -0.272742   -2.273370    0.000000
    C   -0.145675    1.609091    0.000000
    H   -0.776979    2.494698    0.000000

