%NProcShared=4
#p b3lyp/6-311++G(3df,2p) freq symmetry=Loose

 b3lyp opt

1 3
    C   -0.202807   -0.299131    0.384470
    H   -0.016035   -0.651297    1.401856
    C   -1.411636   -0.664366   -0.357259
    H   -1.855465    1.561741    0.299905
    C   -1.455874    0.577244    0.105056
    C    1.024647    0.101402   -0.383472
    H    0.999627    0.355410   -1.445164
    C    2.190735    0.074109    0.208699

