%NProcShared=4
#p b3lyp/6-311++G(3df,2p) freq symmetry=Loose

 b3lyp opt

1 3
    C    1.873759    0.000312    0.000315
    H    2.256249   -1.015978   -0.068775
    H    2.243292    0.594963   -0.839927
    H    2.239183    0.467574    0.920478
    C    0.419464   -0.011880   -0.003554
    C   -0.761215    0.764686   -0.000225
    C   -0.759182   -0.766199   -0.000041
    C   -1.895947    0.005321    0.001543

