%NProcShared=4
#p b3lyp/6-311++G(3df,2p) freq symmetry=Loose

 b3lyp opt

0 4
    C    0.000000    0.266474    0.000000
    C   -0.634093   -0.941808    0.000000
    H   -1.723171   -0.907914    0.000000
    C    1.051186    1.204081    0.000000
    C   -0.044124   -2.174677    0.000000
    C   -0.109697    1.793051    0.000000
    H    0.953213   -2.580857    0.000000
    H   -0.809675    2.606046    0.000000

