%NProcShared=4
#p b3lyp/6-311++G(3df,2p) freq symmetry=Loose

 b3lyp opt

1 3
    C    2.131518   -0.823202    0.000000
    H    3.007619   -1.436615    0.000002
    C    1.133248   -0.130976   -0.000001
    C   -1.320883    0.186279    0.000001
    C   -2.471867   -0.217995   -0.000002
    C    0.000406    0.741685   -0.000000
    H    0.084891    1.453421    0.850650
    H    0.084882    1.453423   -0.850649

