%NProcShared=4
#p b3lyp/6-311++G(3df,2p) freq symmetry=Loose

 b3lyp opt

2 4
    C    0.502895   -0.119439   -0.012759
    C   -0.882499   -0.550251   -0.049481
    H   -1.061899   -1.626305   -0.145504
    C    1.501039    0.850025    0.007445
    C   -1.981683    0.341568    0.023529
    C    1.847550   -0.478047    0.038113
    H   -1.911546    1.392688   -0.269251
    H   -2.950365   -0.029515    0.373674

