%NProcShared=4
#p b3lyp/6-311++G(3df,2p) freq symmetry=Loose

 b3lyp opt

3 1
    C   -1.499303   -0.286410   -0.000001
    H   -2.085622   -0.544829   -0.943101
    H   -2.085630   -0.544827    0.943095
    C    0.070993   -0.629369    0.000004
    C    1.515109   -0.357580   -0.000001
    H    2.523638   -0.861852   -0.000006
    C   -0.578075    0.806257   -0.000001
    C    0.765880    0.792353    0.000001

