%NProcShared=1
#p b3lyp/6-311++G(3df,2p) freq symmetry=Loose

 b3lyp opt

2 4
C  0.985741992  0.000103785 -0.000045987
C -0.292824001  0.000012180  0.000015250
C -1.577321985 -0.000079850  0.000076771
C -2.850163990 -0.000171044  0.000137734
C  2.357233987  0.000202047 -0.000111674
H  2.754702002  0.858317966  0.594764779
H  2.754823985 -0.944007798  0.445547062
H  2.754678977  0.086381412 -1.040703979

