%NProcShared=1
#p b3lyp/6-311++G(3df,2p) freq symmetry=Loose

 b3lyp opt

1 3
C  0.547156998  0.793071448  0.115916008
C -0.698935002  0.000210366  0.444049007
H -0.967812000  0.000576980  1.503304000
C -1.766132996 -0.000015440 -0.498724017
H -2.843919934  0.000089601 -0.430926279
C  0.547034998 -0.793056552  0.116434008
C  1.572439997 -0.000194390 -0.260366985
H  2.602350993 -0.000376762 -0.576228971

