%NProcShared=4
#p b3lyp/6-311++G(3df,2p) freq symmetry=Loose

 b3lyp opt

0 4
    C   -2.343938   -0.471032    0.000203
    C    0.022615    0.063491    0.000199
    C   -1.311854    0.389934    0.000371
    H   -1.556711    1.461916   -0.000042
    H   -3.418362   -0.390043   -0.000052
    C    1.309088   -0.007531   -0.000447
    C    2.551930   -0.117258   -0.000190
    H    3.608904   -0.215006   -0.001405

