%NProcShared=1
#p b3lyp/6-311++G(3df,2p) freq symmetry=Loose

 b3lyp opt

1 1
C  2.287412000 -0.045932000  0.000186000
H  3.313557000  0.285752000  0.000104000
C  1.075605996 -0.391496971  0.000264209
H  0.844155962 -1.462720700  0.000685054
C -0.131645990  0.560595922 -0.000181345
H  0.112856029  1.615049768 -0.000594758
C -1.347739999  0.085261995 -0.000050953
C -2.595645006 -0.281275951  0.000033898

