%NProcShared=4
#p b3lyp/6-311++G(3df,2p) freq symmetry=Loose

 b3lyp opt

1 4
    C    0.690409   -0.026349    0.000329
    H    1.055271   -0.452776    0.932060
    H    0.591629    1.109843   -0.000494
    H    1.058337   -0.450953   -0.931062
    C   -0.921370    0.143773    0.000044
    H   -1.315281   -0.910623   -0.003703

