%NProcShared=1
#p b3lyp/6-311++G(3df,2p) freq symmetry=Loose

 b3lyp opt

0 1
C -0.000167340  0.662414958  0.000000000
H  0.920057120  1.232662473  0.000000000
H -0.920679795  1.232197464  0.000000000
C  0.000167340 -0.662414958 -0.000000000
H -0.920057120 -1.232662473 -0.000000000
H  0.920679795 -1.232197464 -0.000000000

