%NProcShared=1
#p b3lyp/6-311++G(3df,2p) freq symmetry=Loose

 b3lyp opt

2 3
C  1.360091446  0.000313266  0.000014648
H  1.935063682 -0.575627402 -0.757885534
H  1.934828664  0.576294759  0.758062049
C  0.000085925  0.000264975 -0.000159500
C -1.359919596  0.000216684 -0.000333648
H -1.934821160 -0.757777528  0.575553822
H -1.934727486  0.758170072 -0.576368337

