%NProcShared=4
#p b3lyp/6-311++G(3df,2p) freq IOp(2/17=3) IOp(2/18=3)

 b3lyp opt

0 3
C -1.278792616 -0.084291797 -0.000046405
H -2.121026216  0.595121896 -0.000137155
H -1.510152935 -1.149581148  0.000064038
C  0.000021938  0.353667024 -0.000067518
C  1.278775373 -0.084470216  0.000006101
H  1.509987052 -1.149791838  0.000126040
H  2.121103762  0.594825959 -0.000050066

