%NProcShared=1
#p b3lyp/6-311++G(3df,2p) freq symmetry=Loose

 b3lyp opt

1 2
C  1.310433090 -0.000079720  0.000151979
H  1.873423827 -0.849252635  0.388869568
H  1.873462367  0.849045576 -0.388613811
C -0.000027900 -0.000024300  0.000208075
C -1.310488890  0.000031120  0.000264171
H -1.873446345  0.849205815  0.389026069
H -1.873551448 -0.849095956 -0.388449526

