%NProcShared=1
#p b3lyp/6-311++G(3df,2p) freq symmetry=Loose

 b3lyp opt

3 2
C  1.008103000 -0.199722000  0.000235000
H  1.257132000 -1.304130000  0.000751000
H  1.729977971  0.862906184 -0.000192481
H  2.319376015  0.054812904  0.000214296
C -0.303534985  0.330410904 -0.000098237
C -1.483337020 -0.308961873  0.000105478
H -0.634470926  1.456083538 -0.000629706

