%NProcShared=1
#p b3lyp/6-311++G(3df,2p) freq symmetry=Loose

 b3lyp opt

3 2
C -1.066047009 -0.336391994  0.000000755
C  1.066024995 -0.336117005  0.000001772
C -0.000128865  0.577535001  0.000002361
H -1.823861612 -1.204057753 -0.000000648
H  1.824063392 -1.203587253  0.000001091
H -0.000246502  1.486619523  0.809008952
H -0.000245731  1.486621466 -0.809002048

