%NProcShared=1
#p b3lyp/6-311++G(3df,2p) freq symmetry=Loose

 b3lyp opt

0 1
C  1.236175016  0.000198132 -0.000320803
H  1.626802579  0.588857920  0.831115011
H  1.626719954 -1.014201000  0.093832282
H  1.626928514  0.425834024 -0.925816099
C -0.218535994  0.000326549 -0.000436991
C -1.417604024  0.000432399 -0.000532761
H -2.479004016  0.000526095 -0.000617536

