%NProcShared=1
#p b3lyp/6-311++G(3df,2p) freq symmetry=Loose

 b3lyp opt

3 4
C -1.250432000 -0.153398000  0.000189000
H -1.929310000 -1.192983000  0.000296000
H -2.398227224  0.349627265 -0.000148619
C  0.105467994  0.346519008  0.000336870
H  2.510468161 -0.540217191  0.001005925
H  0.225950066  1.509257922  0.000093504
C  1.409942006 -0.214943007  0.000718229

