%NProcShared=1
#p b3lyp/6-311++G(3df,2p) freq symmetry=Loose

 b3lyp opt

0 3
C -1.278792616 -0.084291796 -0.000046405
H -2.121026216  0.595121898 -0.000137154
H -1.510152936 -1.149581147  0.000064037
C  0.000021938  0.353667024 -0.000067518
C  1.278775373 -0.084470217  0.000006101
H  1.509987051 -1.149791839  0.000126039
H  2.121103762  0.594825957 -0.000050066

