%NProcShared=4
#p b3lyp/6-311++G(3df,2p) freq symmetry=Loose

 b3lyp opt

3 4
    C    1.281248   -0.094752   -0.000404
    H    1.679546   -1.157312   -0.000031
    H    1.968722    0.728171   -0.650732
    H    1.968657    0.727277    0.651311
    C   -0.209833    0.030082   -0.000591
    C   -1.556620    0.013367   -0.000540
    H   -2.705791    0.010820    0.000712

