%NProcShared=1
#p b3lyp/6-311++G(3df,2p) freq symmetry=Loose

 b3lyp opt

0 1
C -0.000327586  0.981050815 -0.000668163
C -0.743079903 -0.310957476  0.000285955
C  0.743292036 -0.310458492  0.000284380
H -1.296927860 -0.539221127  0.905064971
H -1.296929329 -0.540556349 -0.904154254
H  1.297295045 -0.538350231  0.905062222
H  1.297293576 -0.539685453 -0.904157003

