%NProcShared=1
#p b3lyp/6-311++G(3df,2p) freq symmetry=Loose

 b3lyp opt

2 3
C -0.639375822  0.206395465  0.636653412
H -1.395999931  0.450599001  1.390030559
C -0.351308853  0.135986178 -0.845451666
H -0.767046268  0.296870238 -1.845937176
C  0.251133354 -0.886190778  0.090920678
H  0.548301458 -1.934909209  0.198499981
C  0.739594782  0.543932288  0.117919883
H  1.614788203  1.187563124  0.257448943

