%NProcShared=4
#p b3lyp/6-311++G(3df,2p) freq symmetry=Loose

 b3lyp opt

0 3
    C   -1.699854   -0.375777   -0.000118
    H   -2.129778   -0.736136    0.926678
    H   -2.131203   -0.733426   -0.927355
    C   -0.573611    0.552363    0.000569
    H   -0.766215    1.623549   -0.000028
    C    0.734615    0.136051   -0.000219
    C    1.892938   -0.243259   -0.000156
    H    2.902667   -0.570258    0.000247

