%NProcShared=1
#p b3lyp/6-311++G(3df,2p) freq symmetry=Loose

 b3lyp opt

1 2
C -0.000000000  0.000000000  0.629251808
C  0.000000000 -0.000000000 -0.629187192
C  0.000000000 -0.000000000 -1.952903692
C -0.000000000  0.000000000  1.952968308
H  0.876373821  0.318441604  2.512653308
H -0.876373821 -0.318441604  2.512653308
H  0.876357180 -0.318487397 -2.512588692
H -0.876357180  0.318487397 -2.512588692

