%NProcShared=1
#p b3lyp/6-311++G(3df,2p) freq symmetry=Loose

 b3lyp opt

3 4
C  1.011805088  0.000501215  0.000124258
H  1.857135805  0.000844236  0.838529109
H  1.857337662  0.001026144 -0.838076924
C -1.259813166 -0.000664847 -0.000149364
C -0.157756213 -0.938615591 -0.000118445
H -0.162681744 -2.151226028 -0.000250604
C -0.158719751  0.938416813  0.000085093
H -0.164890219  2.151021555  0.000215915

