%NProcShared=4
#p b3lyp/6-311++G(3df,2p) freq symmetry=Loose

 b3lyp opt

1 4
    C   -1.667769   -0.125190   -0.000184
    H   -2.556577    0.493600   -0.001131
    H   -1.803579   -1.200257   -0.000062
    C   -0.407225    0.442245    0.000354
    H   -0.291888    1.519024    0.000545
    C    2.005081    0.162846   -0.000466
    C    0.737369   -0.372005    0.000395
    H    0.647307   -1.459742    0.000059

