%NProcShared=4
#p b3lyp/6-311++G(3df,2p) freq symmetry=Loose

 b3lyp opt

0 1
    C   -1.606047   -0.111285   -0.000812
    H    0.323775    1.435654   -0.920549
    C    0.358791    0.874909    0.000418
    H    0.320191    1.435317    0.921394
    C   -0.411833   -0.530507   -0.002881
    C    1.039131   -0.456914    0.001268
    H    1.537112   -0.762404    0.913973
    H    1.543062   -0.761966   -0.908286

