%NProcShared=1
#p b3lyp/6-311++G(3df,2p) freq symmetry=Loose

 b3lyp opt

0 1
C  1.072484505  0.001068261 -0.163205942
C -0.154922778 -0.799649634  0.146727873
H  1.382454110  0.001484695 -1.199926013
H  1.904392963  0.001793058  0.539441121
H -0.221577266 -1.584067991  0.892288461
C -1.234532536 -0.001143933 -0.317838054
C -0.156468130  0.799342304  0.146908116
H -0.224638538  1.583462255  0.892645516

