%NProcShared=4
#p b3lyp/6-311++G(3df,2p) freq symmetry=Loose

 b3lyp opt

0 1
    C   -1.860779    0.000475   -0.005006
    H   -2.317068   -0.900741   -0.420529
    H   -2.266829    0.884065   -0.503965
    H   -2.173360    0.062220    1.043898
    C   -0.421160   -0.031137   -0.016479
    C    0.814708   -0.015638   -0.003743
    C    2.140380    0.166132    0.004088
    H    2.718360   -0.764533    0.007444

