%NProcShared=1
#p b3lyp/6-311++G(3df,2p) freq symmetry=Loose

 b3lyp opt

2 3
C -1.267293911 -0.000333607 -0.000145964
C  0.000247021 -0.756483747  0.000404031
H -1.883218042 -0.000608370 -0.929026017
H -1.883859941 -0.000401050  0.928108024
H  1.884086857  0.000644908  0.927972942
C -0.000172985  0.756520253  0.000234983
C  1.267220898  0.000369967 -0.000156041
H  1.882980843  0.000437112 -0.929077063

