%NProcShared=4
#p b3lyp/6-311++G(3df,2p) freq symmetry=Loose

 b3lyp opt

3 2
    C    1.796467   -0.281773    0.023851
    H    2.861776   -0.661750    0.020567
    C    0.626732    0.328973    0.098549
    H    0.911299    1.322248    0.627098
    C   -0.763406    0.104759   -0.340758
    H   -0.938802   -0.673281   -1.191161
    H   -1.322878    1.087918   -0.667401
    C   -1.911270   -0.331304    0.420568

