%NProcShared=4
#p b3lyp/6-311++G(3df,2p) freq symmetry=Loose

 b3lyp opt

1 4
    C    1.503629   -0.502414   -0.000286
    H    1.825228   -0.916907   -0.943604
    H    1.817434   -0.926718    0.941463
    C    0.502141    0.616779    0.001083
    H    0.621725    1.292493    0.878982
    H    0.624463    1.297599   -0.872341
    C   -0.862164    0.245169   -0.001421
    C   -1.958415   -0.483945   -0.000125

