%NProcShared=1
#p b3lyp/6-311++G(3df,2p) freq symmetry=Loose

 b3lyp opt

3 4
C  1.696030000 -0.402665000  0.000007266
H  2.670706000  0.128348002  0.000047452
H  1.656177999 -1.509225002 -0.000048700
C  0.455501999  0.480745998  0.000034199
H  0.544122307  1.246045228  0.874113758
H  0.544146690  1.246132762 -0.873966238
C -0.874423000  0.018010001 -0.000007522
C -2.179634999 -0.281306998 -0.000040716

