%NProcShared=4
#p b3lyp/6-311++G(3df,2p) freq symmetry=Loose

 b3lyp opt

3 2
    C   -0.002334   -0.901439   -0.000344
    H    0.001829    1.635571    0.901898
    C    1.175240   -0.205352    0.000428
    H    2.303358   -0.238414    0.000697
    C   -1.176691   -0.202447   -0.000036
    C    0.002803    0.842089   -0.000242
    H   -2.304990   -0.229412    0.000604
    H    0.005691    1.635145   -0.902040

