%NProcShared=1
#p b3lyp/6-311++G(3df,2p) freq symmetry=Loose

 b3lyp opt

2 3
C -0.736467000  0.396333000 -0.000555000
C  0.569558000  0.057418000 -0.000889000
H -0.857153880  1.510767185 -0.001230890
H  2.271011708 -1.184118449 -0.000802106
C  1.851868852 -0.154780227 -0.001295605
H  2.589920908  0.676172859 -0.002151540
C -1.861674855 -0.420051778  0.000455996
H -2.946040697 -0.277399536  0.000823841

