%NProcShared=4
#p b3lyp/6-311++G(3df,2p) freq symmetry=Loose

 b3lyp opt

1 4
    C    1.606439   -0.328126   -0.000001
    H    2.188116   -0.068146   -0.886763
    H    1.374665   -1.387841    0.002000
    H    2.189867   -0.065232    0.884861
    C    0.354630    0.527139   -0.000052
    H    0.482636    1.616964    0.000140
    C   -0.886366    0.099633    0.000013
    C   -2.113917   -0.314604    0.000001

