%NProcShared=4
#p b3lyp/6-311++G(3df,2p) freq IOp(2/17=3) IOp(2/18=3)

 b3lyp opt

0 3
C -1.143469707  0.000007915  0.131898076
C -0.000020882 -0.863306060 -0.253506873
H -2.044332028 -0.000038829 -0.474443092
H -1.380306254  0.000089362  1.205540223
H  1.380560720  0.000091334  1.205258760
C -0.000022128  0.863264934 -0.253638127
C  1.143505269  0.000009548  0.131664925
H  2.044243942 -0.000035910 -0.474859911

