%NProcShared=1
#p b3lyp/6-311++G(3df,2p) freq symmetry=Loose

 b3lyp opt

1 2
C -0.000014202  0.772561844  0.000032342
C  1.229942921  0.000034998 -0.000024333
C  0.000023048 -0.772551152 -0.000080688
C -1.229934075 -0.000024305 -0.000024013
H  1.852551044 -0.000016322  0.906699338
H  1.852550805  0.000116337 -0.906748166
H -1.852541958 -0.000105645  0.906699820
H -1.852542198  0.000027014 -0.906747684

