%NProcShared=4
#p b3lyp/6-311++G(3df,2p) freq symmetry=Loose

 b3lyp opt

3 4
    C    0.750294   -0.330136    0.326181
    H    0.814582   -1.087181    1.167115
    C    1.841193    0.353307   -0.097793
    H    2.706976    0.949956   -0.495911
    C   -0.750397   -0.330608   -0.325239
    C   -1.841120    0.353925    0.097432
    H   -0.815005   -1.089206   -1.164767
    H   -2.706844    0.951460    0.494322

