%NProcShared=1
#p b3lyp/6-311++G(3df,2p) freq symmetry=Loose

 b3lyp opt

3 2
C  2.362547000 -0.220552997 -0.000022159
H -1.735938000 -1.492069998 -0.000040098
C -1.755128000 -0.385852999 -0.000007967
H -2.725852000  0.152339002  0.000012097
C  0.792006001 -0.079906004 -0.000010846
C -0.483006000  0.456857999  0.000010579
H -0.518360962  1.358201767  0.767665853
H -0.518368039  1.358246237 -0.767592151

