%NProcShared=1
#p b3lyp/6-311++G(3df,2p) freq symmetry=Loose

 b3lyp opt

0 1
C  0.000000000  0.787162000  0.664691423
H  0.000000000  1.548247500  1.429489923
C -0.000000000 -0.787162000  0.664691423
H -0.000000000 -1.548247500  1.429489923
C  0.000000000  0.787162000 -0.664724577
C -0.000000000 -0.787162000 -0.664724577
H -0.000000000 -1.548247500 -1.429523077
H  0.000000000  1.548247500 -1.429523077

