%NProcShared=4
#p b3lyp/6-311++G(3df,2p) freq symmetry=Loose

 b3lyp opt

3 4
    C   -1.810576   -0.621918    0.050800
    C    0.461310    0.234459    0.365245
    H    0.523069    0.486791    1.479997
    C    1.665481   -0.229429   -0.178850
    H    1.925743   -1.305099   -0.420209
    H    2.512805    0.517654   -0.344439
    C   -0.938750    0.436568   -0.228267
    H   -1.226408    1.382573   -0.768920

