%NProcShared=4
#p b3lyp/6-311++G(3df,2p) freq symmetry=Loose

 b3lyp opt

1 4
    C    0.010802    0.020500    0.077009
    C   -1.469153   -0.098646   -0.007274
    H   -1.792430   -0.571373    0.927255
    H   -1.938381    0.876928   -0.101057
    H   -1.731607   -0.738702   -0.849167
    C    0.896156    1.054308   -0.011398
    C    1.144308   -0.714821   -0.127633
    H    1.969738   -1.134899    0.438747

