%NProcShared=1
#p b3lyp/6-311++G(3df,2p) freq symmetry=Loose

 b3lyp opt

1 2
H -1.437682000 -1.463570000 -0.000546000
C  0.705528000  0.137069000  0.000266000
C  1.884048005 -0.192622997  0.000553575
H  2.915315670 -0.481284155  0.000805198
C -0.611761004  0.527745998 -0.000052525
C -1.641071966 -0.400074984 -0.000463400
H -0.831964049  1.591176977  0.000025346
H -2.673423047 -0.073493022 -0.000710345

