%NProcShared=1
#p b3lyp/6-311++G(3df,2p) freq symmetry=Loose

 b3lyp opt

0 3
C -1.568807996 -0.157769006 -0.000081069
H -1.883709979 -1.190442031 -0.000002630
H -2.331119993  0.610414989 -0.000204409
C -0.263994004  0.184031006 -0.000028733
C  1.188353994 -0.509894991  0.000132491
H  1.503983239 -1.003962294 -0.916207563
H  1.503863710 -1.003786631  0.916608393
C  0.845613008  0.914929988 -0.000026421

