%NProcShared=1
#p b3lyp/6-311++G(3df,2p) freq symmetry=Loose

 b3lyp opt

0 1
C  0.398975238 -0.000808502  0.499125235
H  1.349837522 -0.000022434 -1.295578472
H  0.418028409 -0.001852608  1.584877404
C  1.602247985 -0.001278940 -0.221306002
C -0.928310987 -0.627537905 -0.120280561
C -0.927108286  0.629628689 -0.119092721
H -1.324088875 -1.613110764 -0.261283293
H -1.320999452  1.616221699 -0.258232042

