%NProcShared=4
#p b3lyp/6-311++G(3df,2p) freq IOp(2/17=3) IOp(2/18=3)

 b3lyp opt

3 2
C -0.696410635  0.337235557 -0.000054298
H -0.957840303  1.011743227 -0.924277021
H -0.957789467  1.011907387  0.924062978
C  0.696412365 -0.337236441 -0.000032702
H  0.957842033 -1.011744111  0.924190021
H  0.957791197 -1.011908271 -0.924149978
C -1.960556633 -0.284563436  0.000035696
C  1.960558363  0.284562552 -0.000122696

