%NProcShared=1
#p b3lyp/6-311++G(3df,2p) freq symmetry=Loose

 b3lyp opt

2 1
C  0.189177257  0.947393705  0.195987395
H  0.382534175  1.915579656  0.670868656
C -0.947462407  0.189334196 -0.194970363
H -1.915641223  0.382887740 -0.669786066
C -0.189408727 -0.947467262  0.195528005
H -0.382969369 -1.915842656  0.669939768
C  0.947398570 -0.189251870 -0.194639268
H  1.915781109 -0.382615970 -0.669116589

