%NProcShared=4
#p b3lyp/6-311++G(3df,2p) freq symmetry=Loose

 b3lyp opt

1 4
    C    0.018931    0.000451    0.446737
    H    0.047678    0.001130    1.551869
    C    1.425014   -0.000072   -0.186599
    H    1.941820    0.891013    0.171176
    H    1.941413   -0.890914    0.172757
    H    1.368111   -0.001215   -1.271523
    C   -1.163685    0.679643   -0.182535
    C   -1.163430   -0.680024   -0.181649

