%NProcShared=1
#p b3lyp/6-311++G(3df,2p) freq symmetry=Loose

 b3lyp opt

1 4
C  0.000114926  0.825665047  0.253161984
C  1.174118967 -0.000327018 -0.135536836
C -0.000147325 -0.824706061  0.254463020
C -1.174110990  0.000046030 -0.135659168
H  2.057831985 -0.000373460  0.499836218
H  1.410132614 -0.002207954 -1.208941060
H -2.057890172  0.000280376  0.499621809
H -1.410013382 -0.001759936 -1.209087976

