%NProcShared=1
#p b3lyp/6-311++G(3df,2p) freq symmetry=Loose

 b3lyp opt

3 4
C  1.832696530  0.161194595 -0.001277641
H  2.267811202  1.190646312 -0.001962232
H  2.610986773 -0.708464904 -0.516630330
H  2.611520215 -0.708004968  0.514045102
C  0.493363765 -0.137643202 -0.000451093
C -0.845001828 -0.022229851  0.000190096
C -2.178568395  0.033014522  0.000855652
H -3.303106067  0.018205805  0.001444282

