%NProcShared=4
#p b3lyp/6-311++G(3df,2p) freq IOp(2/17=3) IOp(2/18=3)

 b3lyp opt

2 3
C -1.267293911 -0.000333586  0.000039084
C  0.000247021 -0.756483778  0.000123409
H -1.883539109 -0.000608403 -0.928527840
H -1.883538874 -0.000400905  0.928606201
H  1.883533967  0.000644820  0.928563591
C -0.000172985  0.756520222 -0.000045640
C  1.267220898  0.000369989  0.000038685
H  1.883533733  0.000437331 -0.928486414

