%NProcShared=4
#p b3lyp/6-311++G(3df,2p) freq symmetry=Loose

 b3lyp opt

0 3
    C    0.076138    0.000061    0.480074
    H    0.101463    0.000767    1.569171
    C    1.410976   -0.000147   -0.197978
    H    1.992370    0.879018    0.095509
    H    1.992216   -0.879269    0.095127
    H    1.304289    0.000207   -1.281561
    C   -1.192625    0.643703   -0.181114
    C   -1.192879   -0.643738   -0.180690

