%NProcShared=4
#p b3lyp/6-311++G(3df,2p) freq IOp(2/17=3) IOp(2/18=3)

 b3lyp opt

3 4
C  1.011805088  0.000501214  0.000124258
H  1.857135805  0.000844235  0.838529108
H  1.857337662  0.001026143 -0.838076925
C -1.259813166 -0.000664846 -0.000149363
C -0.157756213 -0.938615591 -0.000118445
H -0.162681744 -2.151226028 -0.000250604
C -0.158719751  0.938416813  0.000085093
H -0.164890219  2.151021555  0.000215915

