%NProcShared=4
#p b3lyp/6-311++G(3df,2p) freq symmetry=Loose

 b3lyp opt

2 3
    C   -1.707345   -0.194178    0.000037
    H   -2.619324    0.405363   -0.000606
    H   -1.803635   -1.279166    0.000628
    C   -0.454174    0.472649    0.000034
    H   -0.406030    1.560469    0.000139
    C    2.038496    0.088272    0.000075
    C    0.781085   -0.250903   -0.000102
    H    0.880617   -1.381707   -0.000424

