%NProcShared=4
#p b3lyp/6-311++G(3df,2p) freq symmetry=Loose

 b3lyp opt

3 4
    C   -1.255294   -0.020694    0.042853
    C   -0.000536   -0.719412   -0.257522
    H   -2.148995    0.550691   -0.524902
    H   -2.005975   -0.649131    0.744060
    H    2.004692   -0.651640    0.745647
    C    0.001198    0.800301    0.093441
    C    1.255483   -0.022194    0.043705
    H    2.150698    0.545964   -0.524576

