%NProcShared=1
#p b3lyp/6-311++G(3df,2p) freq symmetry=Loose

 b3lyp opt

2 1
C -0.683133771  0.374527554  0.000011269
H -0.852564534  1.048787416 -0.896712623
H -0.852714005  1.048448198  0.896961876
C  0.683131232 -0.374526439 -0.000016538
H  0.852561996 -1.048786300  0.896707353
H  0.852711467 -1.048447082 -0.896967145
C -1.906655254 -0.290498907 -0.000216460
C  1.906652715  0.290500023  0.000211190

