%NProcShared=1
#p b3lyp/6-311++G(3df,2p) freq symmetry=Loose

 b3lyp opt

0 3
C  0.623690388  0.002305914  0.001051893
C -0.623692388  0.001368778  0.000270107
C -1.979913271  0.000349874 -0.000579891
H -2.541480001  0.563939451 -0.735237154
H -2.541552975 -0.564083548  0.733373412
C  1.979911271  0.003324818  0.001901891
H  2.542419647 -0.730558214 -0.561757332
H  2.540609330  0.738051695  0.566265073

