%NProcShared=1
#p b3lyp/6-311++G(3df,2p) freq symmetry=Loose

 b3lyp opt

2 3
C  0.000126779  0.646919399 -0.000000000
C -0.000128240 -0.646918553  0.000000000
C -0.000390831 -1.979174066  0.000000000
H -0.944417273 -2.556818048  0.000000000
H  0.943407827 -2.557190143  0.000000000
C  0.000389370  1.979174912 -0.000000000
H  0.944415811  2.556818894 -0.000000000
H -0.943409288  2.557190989 -0.000000000

