%NProcShared=1
#p b3lyp/6-311++G(3df,2p) freq symmetry=Loose

 b3lyp opt

3 2
C  0.537102008  0.067609120  0.000189961
C  1.852083996 -0.148650055  0.000055736
C -0.835222014  0.389446802  0.000432480
H -1.105287899  1.056062813  0.921959532
H  2.473104547 -0.250887394  0.956218364
H  2.473244443 -0.248849753 -0.956231714
H -1.105153180  1.058025041 -0.919711476
C -2.009760984 -0.577159760 -0.000683319

