%NProcShared=1
#p b3lyp/6-311++G(3df,2p) freq symmetry=Loose

 b3lyp opt

3 2
C -1.769829877 -0.132626787 -0.000563706
H -2.353524903 -0.274314831  0.962614750
H -2.353002903 -0.273407831 -0.964191250
C -0.435218947  0.360792092  0.000030125
H -0.472087016  1.497439972  0.000555188
C  2.064299774  0.156334608  0.000611037
C  0.833853022 -0.301968961  0.000061955
H  1.019994155 -1.444895731 -0.000425623

