%NProcShared=4
#p b3lyp/6-311++G(3df,2p) freq IOp(2/17=3) IOp(2/18=3)

 b3lyp opt

0 3
C -1.553544997  0.822145003 -0.000027994
C -1.671599998 -0.621650998 -0.000083828
H -1.869942019 -1.170319426  0.918090186
C -0.316378000  0.294951000 -0.000004428
H -1.869878973 -1.170253565 -0.918310812
C  0.968006996  0.092596996  0.000032409
C  2.256511999 -0.125302001  0.000068830
H  2.820891305 -0.217971611  0.923318887
H  2.820954696 -0.217905388 -0.923149117

