%NProcShared=4
#p b3lyp/6-311++G(3df,2p) freq symmetry=Loose

 b3lyp opt

3 4
    C   -2.363276    0.011968    0.000235
    C    0.194766    0.461922    0.001322
    H   -2.944845    0.090687   -0.954230
    H   -2.945929    0.088806    0.954182
    H    0.134861    1.578097    0.001222
    C    2.767470   -0.219419   -0.001365
    C    1.490648    0.031333   -0.000023
    C   -0.977417   -0.335758    0.000564
    H   -0.917913   -1.459790   -0.000333

