%NProcShared=4
#p b3lyp/6-311++G(3df,2p) freq symmetry=Loose

 b3lyp opt

1 2
    C    0.359736   -1.216324   -0.000061
    C    0.925568    0.066260    0.000100
    C    1.947336    0.961942   -0.000105
    C   -1.792804    0.447838    0.000268
    H   -1.883093    1.079860   -0.887721
    H   -2.585927   -0.296251    0.014682
    H   -1.873239    1.106447    0.869056
    C   -0.485783   -0.197245    0.000571
    H    0.617935   -2.264877   -0.000653

