%NProcShared=4
#p b3lyp/6-311++G(3df,2p) freq symmetry=Loose

 b3lyp opt

3 2
    C   -0.502333   -0.030416    0.057803
    H   -2.389134   -0.126424   -1.163045
    C    0.547220   -0.960970    0.343645
    C    0.622619    0.897747    0.095702
    H    0.721882    1.959501    0.418240
    H    2.560772   -0.262571   -0.714519
    C    1.561875   -0.156661   -0.238135
    C   -1.939306   -0.026502   -0.140314
    H   -2.630138    0.078739    0.741055

