%NProcShared=1
#p b3lyp/6-311++G(3df,2p) freq symmetry=Loose

 b3lyp opt

1 4
C -1.255041985 -0.400539946 -0.000428067
H -1.011447983 -1.463315939 -0.000894613
C  1.071253987  0.165514954  0.000140147
C -2.581879985 -0.040650946 -0.000432067
C  2.296795991 -0.193206031  0.000131508
H  2.841244622 -0.349566289 -0.930318668
H  2.841002374 -0.350438725  0.930576382
C -0.230584009  0.560093966  0.000155665
H -0.473583010  1.617299965  0.000619677

