%NProcShared=1
#p b3lyp/6-311++G(3df,2p) freq symmetry=Loose

 b3lyp opt

2 3
C  1.094236997 -0.124827994 -0.000247703
C -0.090524004 -0.720474993 -0.000242383
H  2.874127971  0.625927495  0.946426798
H -0.068021010 -1.829325983 -0.000335973
C -1.309455997 -0.066037006 -0.000131145
C -2.432871994  0.446764989 -0.000036164
H -3.415021990  0.901872981  0.000047441
C  2.362013998  0.408170004 -0.000262108
H  2.874040023  0.626085516 -0.946962225

