%NProcShared=4
#p b3lyp/6-311++G(3df,2p) freq symmetry=Loose

 b3lyp opt

0 3
    C   -0.548957   -0.000473    0.434854
    C    0.587348    0.882987   -0.073518
    H   -0.603832   -0.002302    1.518265
    C   -1.837020    0.001511   -0.248093
    H   -1.877547    0.005963   -1.327099
    H   -2.761650   -0.004309    0.307974
    C    0.587070   -0.883656   -0.075581
    C    1.637995   -0.000441   -0.071905
    H    2.688450   -0.000068   -0.292667

