%NProcShared=4
#p b3lyp/6-311++G(3df,2p) freq symmetry=Loose

 b3lyp opt

0 3
    C    0.919954    1.160716    0.001640
    H    0.095464    1.867464   -0.099385
    H    1.449545    1.359732    0.935507
    H    1.634639    1.306281   -0.809175
    C   -1.870804    0.488588   -0.011225
    C    0.416673   -0.255370   -0.000858
    C    1.251635   -1.338396   -0.008169
    C   -1.024328   -0.547214    0.009538
    H   -1.338431   -1.583422    0.027496

