%NProcShared=4
#p b3lyp/6-311++G(3df,2p) freq symmetry=Loose

 b3lyp opt

3 4
    C    0.428045   -0.054517    0.268119
    C   -1.726532   -0.141140   -0.064233
    C   -0.614754   -1.093143   -0.135915
    H    0.559858   -0.134506    1.429134
    C    1.871373    0.020806   -0.148946
    H    2.389181    0.999455   -0.209184
    H    2.439987   -0.916074   -0.325836
    C   -0.727346    0.941044   -0.014281
    H   -0.773225    2.011820   -0.327359

