%NProcShared=4
#p b3lyp/6-311++G(3df,2p) freq IOp(2/17=3) IOp(2/18=3)

 b3lyp opt

1 4
C -1.507980993  0.179649002 -0.000420498
C  2.065773993 -0.340291002  0.000098326
H -2.433650943  0.756264017 -0.000534756
H  2.572428749 -0.593827624 -0.930291291
H  2.572146260 -0.593912374  0.930618625
C -1.607368978 -1.189579993 -0.000497943
C  0.924263988  0.232108996 -0.000048889
C -0.277074019  0.864878994 -0.000202437
H -0.299108959  1.951631012 -0.000156288

