%NProcShared=4
#p b3lyp/6-311++G(3df,2p) freq symmetry=Loose

 b3lyp opt

1 4
    C    0.670872   -0.086628    0.318885
    C   -0.505280    0.971215    0.022149
    H    1.110625   -0.102218    1.343406
    H   -0.320172    1.544756   -0.888961
    H   -0.796494    1.627366    0.844373
    C    1.975437    0.007067   -0.366610
    C   -1.390210   -0.237262   -0.167556
    C   -0.339782   -1.106512    0.022215
    H   -2.460183   -0.357190   -0.273315

