%NProcShared=4
#p b3lyp/6-311++G(3df,2p) freq symmetry=Loose

 b3lyp opt

0 1
    H   -1.600693   -0.896085    0.876650
    H    0.717728   -2.061513    0.000650
    C   -0.885509    0.970263    0.000309
    H    2.310623    0.063545    0.000190
    C    0.410173   -1.022844    0.000047
    C    0.321358    1.183682   -0.001415
    C    1.233583    0.051701   -0.000429
    C   -1.051003   -0.552134   -0.000972
    H   -1.597938   -0.893551   -0.881345

