%NProcShared=1
#p b3lyp/6-311++G(3df,2p) freq symmetry=Loose

 b3lyp opt

3 2
C  2.569849000  0.332093000  0.000411000
C  1.346102000 -0.032463000  0.000557000
C  0.073811981 -0.569093877  0.000837506
H  3.634152990  0.658124065  0.000276694
H  0.045388917 -1.710283455  0.001765927
C -1.171552996 -0.044951026  0.000255076
C -2.424694982  0.325806882 -0.000203057
H -3.273225112 -0.425430262  0.000305240
H -2.768204833  1.401559901 -0.001124150

