%NProcShared=1
#p b3lyp/6-311++G(3df,2p) freq symmetry=Loose

 b3lyp opt

0 3
H -2.520878098  0.103897961  0.000349694
C  0.616500002 -0.052809999 -0.000109473
C  1.916615919 -0.123859033 -0.000299384
H  2.785127000  0.509280000 -0.000467000
C -0.530583979 -1.011838991  0.000119259
H -0.598521988 -2.087284995  0.000193797
C -1.442962949  0.053481020  0.000191732
C -0.437062976  1.029585010 -0.000016937
H -0.400758122  2.106755951 -0.000086855

