%NProcShared=1
#p b3lyp/6-311++G(3df,2p) freq symmetry=Loose

 b3lyp opt

2 3
H -2.383918704 -0.936210501 -0.001506953
H  0.642835122 -2.127062340 -0.000373588
C -0.422647821  0.000145041 -0.000075749
H  0.645648805  2.125940298  0.001363002
C  0.618934692 -1.035690707  0.000058870
C  0.620304347  1.034601256  0.000904213
C  1.593089905 -0.001188963  0.001002047
C -1.829664388  0.001076196 -0.000828067
H -2.382678047  0.939095676 -0.000741226

