%NProcShared=1
#p b3lyp/6-311++G(3df,2p) freq symmetry=Loose

 b3lyp opt

0 1
C -1.127750434 -0.517552139  0.000236018
H -1.169058090 -1.600739336  0.000443116
H -2.086932643 -0.016744841  0.000148347
H  1.163989874 -1.604297764  0.000424525
C  0.000062140  0.103877790 -0.802004412
C  0.000075390  0.104184002  0.802220523
C  0.002003027  1.372211824 -0.000134028
C  1.125986612 -0.520989601  0.000218059
H  2.086692043 -0.023110568  0.000115090

