%NProcShared=4
#p b3lyp/6-311++G(3df,2p) freq symmetry=Loose

 b3lyp opt

2 3
    C    1.751698    0.144828   -0.671265
    C    0.559362   -0.140445    0.001709
    C    1.751190    0.162588    0.667780
    C   -1.910425    0.372535   -0.004233
    H   -2.620774    0.024208   -0.810081
    H   -2.621719    0.041829    0.808190
    H   -1.730174    1.441915   -0.016063
    C   -0.824766   -0.522612    0.005927
    H   -0.989690   -1.609315    0.018441

