%NProcShared=1
#p b3lyp/6-311++G(3df,2p) freq symmetry=Loose

 b3lyp opt

2 1
C  2.111801895 -0.443586032  0.000433932
H  1.873861900 -1.501565030  0.000318302
H  2.863144453 -0.137091788  0.793420650
H  2.863472420 -0.136992250 -0.792203420
C -0.299257985  0.210426005 -0.000023712
C -1.510698857 -0.016831957 -0.000288551
C -2.872025938 -0.232769981 -0.000583681
C  1.084173915  0.513822974  0.000281480
H  1.315561875  1.589282962  0.000396852

