%NProcShared=4
#p b3lyp/6-311++G(3df,2p) freq IOp(2/17=3) IOp(2/18=3)

 b3lyp opt

3 4
C  0.680125000 -0.000008902  0.236095002
H  0.864954997  0.000161394  1.396464017
C  2.075319001 -0.000109103 -0.145688004
H -2.560366998  0.000099763  0.304438990
C -0.429588203  1.015187854 -0.122994395
H -0.425788967  1.995423818 -0.646831486
C -1.471433998  0.000033563  0.085657991
C -0.429649799 -1.015247151 -0.122686597
H -0.425910042 -1.995642118 -0.646226471

