%NProcShared=4
#p b3lyp/6-311++G(3df,2p) freq symmetry=Loose

 b3lyp opt

2 3
    C    2.134420   -0.425997   -0.000011
    H    2.811557   -0.134989    0.841228
    H    2.810431   -0.136125   -0.842691
    H    1.886662   -1.481661    0.000620
    C   -0.288895    0.214453   -0.000242
    C   -1.544985   -0.023106   -0.000032
    C   -2.787889   -0.244602    0.000340
    C    1.029556    0.506039   -0.000275
    H    1.243502    1.592507   -0.000179

