%NProcShared=1
#p b3lyp/6-311++G(3df,2p) freq symmetry=Loose

 b3lyp opt

1 4
C -1.800679999 -0.640452998  0.000060461
C -0.488304000 -0.233153000  0.000016506
C  0.860549000 -0.482299000 -0.000007631
C  2.121771998  0.205708998 -0.000059218
H  2.711690680 -0.085313661 -0.878090536
H  1.999353992  1.296315990 -0.000090676
H  2.711732324 -0.085258334  0.877962457
C -1.605190999  0.678872001  0.000014258
H -1.951651000  1.702197000 -0.000009767

