%NProcShared=4
#p b3lyp/6-311++G(3df,2p) freq symmetry=Loose

 b3lyp opt

1 4
    C    2.463730    0.168157    0.006216
    H    2.876259    1.164811   -0.126127
    H    3.154328   -0.659481    0.143723
    C    1.143166   -0.032753   -0.001553
    C   -0.093809   -0.239319   -0.012886
    C   -2.407888    0.762501   -0.003912
    C   -1.484636   -0.428043   -0.024878
    H   -1.897686   -0.732348    0.978655
    H   -1.858908   -1.154091   -0.762903

