%NProcShared=1
#p b3lyp/6-311++G(3df,2p) freq symmetry=Loose

 b3lyp opt

2 3
C  1.559452975 -0.231129063  0.000224134
C -2.207889999  0.331597002 -0.000043368
H  2.442903949 -0.894029127  0.000137347
H -2.728041644  0.539821136 -0.945191501
H -2.728255378  0.539288810  0.945104241
C  1.817814942  1.117210856  0.000633053
C -0.936379973 -0.164932932 -0.000039426
C  0.241607051 -0.770642873 -0.000076806
H  0.165705121 -1.877662699 -0.000397136

