%NProcShared=1
#p b3lyp/6-311++G(3df,2p) freq symmetry=Loose

 b3lyp opt

3 2
C  0.500487544 -0.985442455 -0.186002589
H  0.546455871 -1.994122630 -0.647830667
C  0.500336453  0.985454545 -0.186003411
H  0.546150127  1.994141371 -0.647832333
C -0.585356003 -0.000077133 -0.047643000
C -1.928551995 -0.000180022  0.148250000
H -3.037165987 -0.000264920  0.362757000
C  1.433836999  0.000077803  0.293304000
H  2.416159000  0.000153324  0.808698000

