%NProcShared=4
#p b3lyp/6-311++G(3df,2p) freq symmetry=Loose

 b3lyp opt

1 2
    C   -0.577321   -0.910803   -0.282244
    C    0.676063   -0.141572    0.336188
    H    0.734026   -0.405599    1.395139
    C    1.913486    0.055242   -0.280697
    H    2.950930   -0.012831    0.011556
    C   -1.592962   -0.038437    0.043708
    H   -2.663611    0.006063   -0.062118
    C   -0.524945    0.804527    0.024196
    H   -0.387268    1.798624   -0.391483

