%NProcShared=1
#p b3lyp/6-311++G(3df,2p) freq symmetry=Loose

 b3lyp opt

1 4
C -0.599234009  0.000872075  0.459421038
C  0.594594887  0.854139645 -0.051105548
H -0.660785033  0.002414126  1.543757130
C -1.827111672  0.000268428 -0.279088306
H -1.822457432 -0.001248658 -1.359891265
H -2.773122077  0.001330605  0.241153306
C  0.593993887 -0.854663355 -0.048709548
C  1.661044875 -0.000705593 -0.098799501
H  2.716637946 -0.001380465 -0.315331783

