%NProcShared=4
#p b3lyp/6-311++G(3df,2p) freq symmetry=Loose

 b3lyp opt

2 1
    C   -2.157178    0.140962    0.495672
    C    1.475947   -0.696405    0.127211
    H    2.472235   -0.214097    0.268144
    H    1.513243   -1.793749    0.173447
    C    0.368550    0.085567   -0.080659
    C    1.212160    1.164248   -0.008806
    C   -1.086537   -0.194390   -0.320542
    H   -1.362894   -1.288813   -0.454098
    H   -1.500238    0.296765   -1.264749

