%NProcShared=4
#p b3lyp/6-311++G(3df,2p) freq symmetry=Loose

 b3lyp opt

2 1
    C   -2.276625   -0.220111   -0.142486
    C   -1.096954    0.474622    0.104532
    C    0.170988   -0.167344    0.157891
    H   -2.386220   -1.299110   -0.036774
    H   -3.144697    0.337354   -0.503217
    H   -1.103445    1.551656    0.299958
    H    0.117516   -1.234764    0.548300
    C    1.453479    0.028764   -0.010902
    C    2.835254   -0.008454   -0.160414

