%NProcShared=4
#p b3lyp/6-311++G(3df,2p) freq symmetry=Loose

 b3lyp opt

3 4
    C   -1.581826   -0.163153    0.227472
    C   -0.539244   -0.975766   -0.293854
    H   -2.605869   -0.263599    0.640373
    C    0.506925   -0.015294   -0.043994
    C    1.881475   -0.016713    0.097312
    H    2.805654   -0.819704    0.166958
    H    2.817155    0.749683    0.264961
    C   -0.642209    0.903339   -0.087267
    H   -0.767671    1.939147   -0.470305

