%NProcShared=1
#p b3lyp/6-311++G(3df,2p) freq symmetry=Loose

 b3lyp opt

2 1
C -0.000527101  1.091534990 -0.000055990
C -0.633384443 -0.269849762  0.462960579
C  0.633639593 -0.269284261 -0.462943418
H -0.420710635  1.654886945 -0.833361222
H  0.419114267  1.655369953  0.833195769
H -0.588928288 -0.566588510  1.525729149
H  0.589468964 -0.566166471 -1.525683827
C -1.832826126 -0.458550615 -0.209901964
C  1.833262217 -0.456767347  0.209936971

