%NProcShared=4
#p b3lyp/6-311++G(3df,2p) freq symmetry=Loose

 b3lyp opt

1 4
    C    1.606014    0.668998    0.143290
    H    2.597649    1.066677   -0.018098
    C   -1.362929    0.524206    0.302893
    H   -2.052498    0.977537    0.996126
    C    0.963572   -0.519120   -0.008141
    H    1.493536   -1.367649   -0.449117
    C   -0.446296   -0.718036    0.264998
    H   -0.842372   -1.698254    0.503641
    C   -0.959747    0.214233   -0.875132

