%NProcShared=4
#p b3lyp/6-311++G(3df,2p) freq IOp(2/17=3) IOp(2/18=3)

 b3lyp opt

0 3
C  0.710174027 -0.109074988  0.000020270
C -0.710187986 -0.108985020  0.000067726
C  0.000078011  1.232778008 -0.000017996
H  0.000083682  1.807407001 -0.919683000
H  0.000145128  1.807192021  0.919807011
C  1.843453433 -0.726219270 -0.000024594
H  2.894637541 -0.495019863 -0.000588220
C -1.843545564 -0.725985730  0.000098594
H -2.894700410 -0.494653157 -0.000394791

