%NProcShared=4
#p b3lyp/6-311++G(3df,2p) freq IOp(2/17=3) IOp(2/18=3)

 b3lyp opt

1 2
C  1.047388712  0.158320523 -0.000268184
C -0.000019871  1.167884000 -0.000135000
H -0.000096120  1.788916000 -0.897422999
H  2.545939593 -1.572484777 -0.000302120
C  1.829258961 -0.778342003 -0.000346412
H  0.000042127  1.788805000  0.897215999
C -1.047405285  0.158296478 -0.000106816
C -1.829254034 -0.778383997 -0.000064587
H -2.545916420 -1.572543223  0.000090119

