%NProcShared=4
#p b3lyp/6-311++G(3df,2p) freq symmetry=Loose

 b3lyp opt

3 2
    C    2.762386    0.000286    0.000173
    C    0.193712   -0.003294   -0.000079
    H    3.879365    0.004749    0.000019
    C   -1.132579    0.002028    0.000103
    C    1.466851   -0.005199    0.000095
    C   -2.460624    0.059611    0.000008
    H   -2.943683    1.074901   -0.001909
    H   -2.956338   -0.697780   -0.766266
    H   -2.958410   -0.693270    0.769475

