%NProcShared=4
#p b3lyp/6-311++G(3df,2p) freq symmetry=Loose

 b3lyp opt

2 3
    C   -0.034240    0.635594    0.080186
    C   -1.223682   -0.260960    0.264521
    C    1.267512   -0.059221   -0.260727
    H   -0.215936    1.410310   -0.672663
    H    0.078706    1.158353    1.048163
    H   -1.149653   -1.293980    0.676408
    H    1.465953   -0.573705   -1.257189
    C   -2.466494   -0.154155   -0.240420
    C    2.427059   -0.278088    0.190653

