%NProcShared=4
#p b3lyp/6-311++G(3df,2p) freq symmetry=Loose

 b3lyp opt

3 4
    C    0.389271   -1.030070    0.000996
    H    0.384983   -1.883903   -0.802788
    H    0.387040   -1.880935    0.807891
    C   -0.677590    0.023211    0.000919
    C   -2.071603    0.029387   -0.001825
    C    1.387156    0.094677   -0.001674
    H    2.493901    0.128224   -0.005846
    C    0.377787    1.118871    0.001132
    H    0.303952    2.220155    0.003453

