%NProcShared=1
#p b3lyp/6-311++G(3df,2p) freq symmetry=Loose

 b3lyp opt

1 4
C  0.503964592  0.830272056 -0.228133701
H  1.900602918 -0.000443709  1.254032942
C -0.610088004  0.000096006  0.005797997
C -1.983779947  0.000305394  0.087348037
H -2.526148931  0.933797324  0.131165438
H -2.526445938 -0.933023734  0.130955655
C  0.503700385 -0.830381893 -0.228320315
C  1.684863974 -0.000289427  0.186541981
H  2.560024947 -0.000356508 -0.455562037

