%NProcShared=4
#p b3lyp/6-311++G(3df,2p) freq symmetry=Loose

 b3lyp opt

3 2
    H    2.413975   -0.089100    0.672229
    C    0.419112   -1.022013    0.099186
    C   -0.709011   -0.047375    0.021422
    C   -2.010808   -0.034457   -0.039516
    H   -3.132954   -0.019563   -0.114211
    C    0.455536    0.908456    0.023644
    H    0.429094    2.018910    0.166942
    C    1.530858   -0.096999   -0.059064
    H    2.179794   -0.162823   -1.013520

