%NProcShared=1
#p b3lyp/6-311++G(3df,2p) freq symmetry=Loose

 b3lyp opt

1 4
C  0.760363000  0.017073000  0.000019000
C -0.633327000  0.098465000  0.000001000
C -1.868782998 -0.580197986 -0.000119782
H -2.793837003 -0.021419017 -0.000061257
H -1.891810990 -1.660142932 -0.000271045
C  1.883027001 -0.778568993 -0.000068431
H  2.954755999 -0.648694006 -0.000027718
C  0.115618997  1.244855979  0.000176834
H  0.189494992  2.320494950  0.000328567

