%NProcShared=4
#p b3lyp/6-311++G(3df,2p) freq symmetry=Loose

 b3lyp opt

0 3
    C   -1.549928    0.657889   -0.107274
    C   -1.528697   -0.614478   -0.115349
    C   -0.258403    0.181413    0.462766
    H   -1.828999   -1.634053   -0.250874
    H   -0.111931    0.173342    1.539608
    C    1.029276    0.200175   -0.336058
    H    1.584393    1.174313   -0.134940
    H    0.851946    0.193644   -1.420979
    C    2.225184   -0.409539    0.140447

