%NProcShared=4
#p b3lyp/6-311++G(3df,2p) freq symmetry=Loose

 b3lyp opt

0 1
    C   -0.991235   -0.704138   -0.000016
    C    0.543140   -0.943097    0.000144
    H   -1.419220   -1.186491   -0.880908
    H   -1.419808   -1.187074    0.880021
    C   -0.973570    0.765388    0.000113
    H   -1.757280    1.504229   -0.000346
    C    0.350081    0.975171    0.000049
    C    1.422522    0.029386    0.000016
    H    2.490675    0.133078   -0.000599

