%NProcShared=4
#p b3lyp/6-311++G(3df,2p) freq IOp(2/17=3) IOp(2/18=3)

 b3lyp opt

3 4
C  0.221806004 -0.854309994 -0.000060240
C -2.196710990  0.474937013 -0.000112526
C -1.009713987 -0.125916983 -0.000081808
H  0.250367547 -1.611951710  0.852916609
H -2.749273481  0.731734036 -0.953558585
H -2.749417532  0.731546947  0.953300410
H  0.250496431 -1.611784319 -0.853181417
C  1.389607999  0.027459999  0.000114494
C  2.427981977  0.771239969  0.000265911

