%NProcShared=1
#p b3lyp/6-311++G(3df,2p) freq symmetry=Loose

 b3lyp opt

3 2
C  0.647637002 -0.000049755  0.268996001
H  0.975775007 -0.000109197  1.401547003
C  2.091418987 -0.000140673 -0.164444005
H -2.537787990  0.000178676  0.341535004
C -0.443664150  0.998886021 -0.135178035
H -0.407094700  1.999187017 -0.615767526
C -1.455501001  0.000108505  0.080630000
C -0.443808840 -0.998801974 -0.135240961
H -0.407384289 -1.999077978 -0.615893469

