%NProcShared=4
#p b3lyp/6-311++G(3df,2p) freq IOp(2/17=3) IOp(2/18=3)

 b3lyp opt

0 1
C -0.640419919 -1.070605050 -0.000142202
C  0.644135479 -1.068359822 -0.000130883
C  1.210479520  0.147645923  0.000038639
H  2.242543982  0.459912470  0.000089774
C -0.001944092  1.105669581  0.000157973
H -0.003113993  1.770598106  0.873721488
H -0.003099014  1.770834669 -0.873225446
C -1.211011314  0.143413487  0.000017302
H -2.244161066  0.452070321  0.000050240

