%NProcShared=4
#p b3lyp/6-311++G(3df,2p) freq symmetry=Loose

 b3lyp opt

0 3
    C    0.168349    1.861329    0.000000
    H   -0.678232    2.533234    0.000000
    H    1.157370    2.298465    0.000000
    C    0.000000    0.547576    0.000000
    C   -1.116888   -0.433836    0.000000
    C    0.859018   -0.675311    0.000000
    H    1.930218   -0.821851    0.000000
    C   -0.249389   -1.534216    0.000000
    H   -0.375902   -2.603096    0.000000

