%NProcShared=4
#p b3lyp/6-311++G(3df,2p) freq symmetry=Loose

 b3lyp opt

0 3
    C   -0.385241   -0.000299    0.447003
    C    0.735667   -0.855061   -0.133642
    C    1.782632   -0.000032   -0.072594
    C    0.735315    0.855428   -0.133259
    H   -0.393230   -0.000650    1.531598
    C   -1.752473   -0.000075   -0.190563
    H   -2.310816   -0.882470    0.122958
    H   -2.308727    0.884958    0.120333
    H   -1.682622   -0.001602   -1.276562

