%NProcShared=1
#p b3lyp/6-311++G(3df,2p) freq symmetry=Loose

 b3lyp opt

2 1
H -2.799858000  1.121191000  0.000151000
C  0.254726000 -0.399136000 -0.000023000
H  1.277148973  1.572645978 -0.000277608
H  0.417287997 -1.495948002  0.000048158
C  2.535216893 -0.178178088 -0.000260245
C -1.080884924 -0.088055937  0.000081078
C  1.329458930  0.477831942 -0.000195984
C -2.344695912  0.111249072  0.000187086
H -3.058868809 -0.739317843  0.000323235

