%NProcShared=4
#p b3lyp/6-311++G(3df,2p) freq symmetry=Loose

 b3lyp opt

3 4
    C   -2.400770    0.074966   -0.014479
    H   -2.841499    0.061864   -1.069950
    H   -2.822979    1.014792    0.523402
    H   -2.926151   -0.757210    0.602361
    C    2.713725    0.442098   -0.000313
    C   -1.061225   -0.010622    0.002146
    C    0.240074   -0.074529    0.002652
    C    1.599168   -0.261145    0.000832
    H    2.044797   -1.344051   -0.000841

