%NProcShared=4
#p b3lyp/6-311++G(3df,2p) freq symmetry=Loose

 b3lyp opt

3 4
    C    0.325967    0.136521   -0.000100
    C   -0.980183    0.449742    0.000762
    H   -1.158491    1.570843    0.002052
    C   -2.224393   -0.348284    0.000187
    H   -2.492436   -0.766807    1.030523
    H   -3.376372    0.066616   -0.001078
    H   -2.493211   -0.763362   -1.031803
    C    1.595754   -0.044326   -0.000411
    C    2.869255   -0.211159   -0.000264

