%NProcShared=1
#p b3lyp/6-311++G(3df,2p) freq symmetry=Loose

 b3lyp opt

0 3
C  1.132469913 -0.532080785 -0.000134330
H  1.163549751 -1.616052896 -0.000246739
H  2.090850969 -0.033769476 -0.000144654
H -1.163458250 -1.616118037 -0.000098419
C  0.000047393  0.125690962  0.790571353
C -0.000053391  0.125852038 -0.790561607
C -0.000037615  1.362652967  0.000130880
C -1.132439086 -0.532144187  0.000010032
H -2.090848033 -0.033886535  0.000121882

