%NProcShared=4
#p b3lyp/6-311++G(3df,2p) freq symmetry=Loose

 b3lyp opt

1 2
    C   -1.399154   -0.654050    0.000099
    C   -1.222551    0.795971   -0.000083
    H   -2.075225   -1.495550   -0.002716
    H   -1.445304    1.373187    0.906093
    H   -1.446937    1.371985   -0.906654
    C   -0.124631   -0.192567    0.000313
    C    1.241274   -0.482372    0.000995
    H    1.635208   -1.500687    0.001481
    C    2.060735    0.574861   -0.000639

