%NProcShared=4
#p b3lyp/6-311++G(3df,2p) freq symmetry=Loose

 b3lyp opt

1 2
    C   -0.888952   -0.799716    0.000000
    H   -0.496934   -1.817257    0.000000
    C    2.048608    1.324269    0.000000
    C   -2.205970   -0.574812    0.000000
    H   -3.142249   -1.115942    0.000000
    C    0.000000    0.295147    0.000000
    H   -0.426011    1.293478    0.000000
    C    1.402712    0.160800    0.000000
    H    1.926802   -0.794414    0.000000

