%NProcShared=4
#p b3lyp/6-311++G(3df,2p) freq symmetry=Loose

 b3lyp opt

2 3
    C   -2.334399   -0.000200    0.000070
    H   -2.895907   -0.000400   -0.944163
    H   -2.897092   -0.000485    0.943538
    C   -0.967459    0.000396    0.000462
    C    1.607387    0.664681   -0.000025
    H    2.075407    1.649088    0.000435
    C    1.607133   -0.665256   -0.000670
    H    2.074832   -1.649897   -0.001128
    C    0.361336    0.000039   -0.000096

