%NProcShared=4
#p b3lyp/6-311++G(3df,2p) freq symmetry=Loose

 b3lyp opt

2 1
    H   -1.748059    1.433340   -0.535661
    C    0.246995   -0.789466   -0.337890
    C   -1.026344    0.728344   -0.110581
    C    0.247713    0.789431    0.338280
    C   -1.026931   -0.727929    0.110753
    H   -1.749949   -1.432586    0.533916
    C    1.458764   -0.000417   -0.000189
    H    2.048398    0.426641   -0.823817
    H    2.048430   -0.427168    0.823330

