%NProcShared=1
#p b3lyp/6-311++G(3df,2p) freq symmetry=Loose

 b3lyp opt

1 2
C  1.158106750 -0.493073117  0.001269790
H  1.171954134 -1.578841265  0.003809217
H  2.117082998  0.006221395 -0.000071430
H -1.172932367 -1.578177333  0.003638206
C  0.000029329  0.118585423  0.817970113
C -0.000047022  0.114858209 -0.818246028
C  0.000319568  1.275943671 -0.002778619
C -1.158469775 -0.492416904  0.001230977
H -2.117162962  0.007421821  0.000296211

