%NProcShared=4
#p b3lyp/6-311++G(3df,2p) freq symmetry=Loose

 b3lyp opt

3 2
    C    1.385333    1.297016   -0.217601
    C   -1.880764    0.120883   -0.338134
    H   -2.799889    0.554477    0.129078
    H   -1.945893   -0.082970   -1.426699
    C   -0.795516   -0.149686    0.511838
    H   -0.994098   -0.654582    1.480490
    C    0.766511    0.016125    0.243567
    H    1.343763   -0.089273    1.255213
    C    1.257122   -1.238946   -0.439350

