%NProcShared=4
#p b3lyp/6-311++G(3df,2p) freq symmetry=Loose

 b3lyp opt

0 1
    C    1.325084    0.955814    0.000000
    C   -0.289471   -1.955064    0.000000
    H    0.785000   -2.081962    0.000000
    H   -0.901494   -2.846909    0.000000
    C   -0.831356   -0.736872    0.000000
    H   -1.907230   -0.604968    0.000000
    C    0.000000    0.440865    0.000000
    C    0.172319    1.758200    0.000000
    H   -0.235736    2.756175    0.000000

