%NProcShared=4
#p b3lyp/6-311++G(3df,2p) freq symmetry=Loose

 b3lyp opt

0 3
    C    0.201634    0.931240   -0.000055
    C   -1.048016    0.190284   -0.000507
    C    1.461587    0.070381   -0.002613
    H    0.239195    1.590292   -0.874062
    H    0.240231    1.587010    0.876372
    H   -2.988477   -0.969536   -0.000708
    H    2.403778    0.623672   -0.004372
    C   -2.077488   -0.424344   -0.000539
    C    1.478498   -1.238868   -0.002017

