%NProcShared=4
#p b3lyp/6-311++G(3df,2p) freq symmetry=Loose

 b3lyp opt

3 2
    C    1.300478    0.293983    0.154046
    C   -0.637091   -0.904827   -0.084947
    C    0.718543   -1.006870   -0.161065
    H    1.592874    0.363475    1.254226
    H    2.144023    0.671325   -0.476648
    C   -0.126928    0.933535   -0.114260
    H   -0.254038    1.832699   -0.796239
    C   -1.421924    0.126932    0.161852
    H   -2.480833    0.473390    0.287486

