%NProcShared=4
#p b3lyp/6-311++G(3df,2p) freq symmetry=Loose

 b3lyp opt

3 4
    C    1.815610   -0.662179    0.155371
    C    0.582695   -0.000049   -0.097271
    C    1.815627    0.661953    0.156628
    C   -1.998244   -0.000730    0.312654
    H   -3.167535    0.002711   -0.094929
    H   -2.271505   -1.031576    0.746620
    H   -2.271195    1.028174    0.752214
    C   -0.775406    0.000660   -0.492976
    H   -0.931454    0.002760   -1.610335

