%NProcShared=4
#p b3lyp/6-311++G(3df,2p) freq symmetry=Loose

 b3lyp opt

0 3
    C    1.083237   -0.143539    0.363379
    H   -0.142194    1.597099    0.644910
    H    0.983746   -0.684961    1.306591
    C   -1.390349    0.061309    0.074198
    C   -2.427348   -0.588778   -0.174472
    C    2.168816   -0.263084   -0.345952
    H    3.115443   -0.774597   -0.305863
    C   -0.099541    0.722678   -0.020508
    H    0.034116    1.130948   -1.025509

