%NProcShared=4
#p b3lyp/6-311++G(3df,2p) freq symmetry=Loose

 b3lyp opt

0 3
    C    1.925274   -0.414502    0.000504
    C    0.555846   -0.177068   -0.000217
    C    1.490953    0.867655   -0.000242
    C   -1.923641    0.328678    0.000200
    H   -2.562262    0.149950   -0.870964
    H   -2.555479    0.157239    0.877769
    H   -1.601800    1.367163   -0.005381
    C   -0.769988   -0.604808   -0.000470
    H   -0.951125   -1.674074   -0.000072

