%NProcShared=1
#p b3lyp/6-311++G(3df,2p) freq symmetry=Loose

 b3lyp opt

2 1
C -2.135659909 -0.532193895 -0.000520889
H -1.388826997  1.208858003  0.842671852
H -3.187652004 -0.232025004 -0.000651074
C -1.138564991  0.508099011 -0.000115303
H -1.388515997  1.209217003 -0.842696148
C  0.275375006  0.183855007  0.000076543
H -1.910252836 -1.602008810 -0.000707176
C  1.483071034 -0.033296961  0.000253143
C  2.828319846 -0.223803178  0.000460801

