%NProcShared=1
#p b3lyp/6-311++G(3df,2p) freq symmetry=Loose

 b3lyp opt

1 4
C  0.002821019  2.246922017 -0.000000000
C -1.268671342 -1.020231205  0.000000000
H -1.328358817 -2.099731165  0.000000000
H -2.180880135 -0.443462655 -0.000000000
C  0.001328341  1.015824078 -0.000000000
C -0.000352244 -0.370250954  0.000000000
C  1.266386954 -1.023304906  0.000000000
H  2.179991701 -0.448750115  0.000000000
H  1.323456518 -2.102946432  0.000000000

