%NProcShared=1
#p b3lyp/6-311++G(3df,2p) freq symmetry=Loose

 b3lyp opt

0 3
C -1.381051000 -0.163012999 -0.000069282
H -2.003359123 -0.261611264 -0.891042112
H -2.003326872 -0.261558728  0.890931884
C -0.452550002  0.964829997 -0.000119337
C  0.789905000  1.025248000 -0.000143604
C -0.152252004 -1.094735006 -0.000064053
C  1.251058004 -0.417630994 -0.000109412
H  1.838530450 -0.681695518  0.880803246
H  1.838498564 -0.681747460 -0.881027762

