%NProcShared=1
#p b3lyp/6-311++G(3df,2p) freq symmetry=Loose

 b3lyp opt

2 3
C -2.474744341  0.001007567 -0.001835965
H -2.870263917  0.780906346 -0.694099996
H -2.871059555 -0.988015731 -0.331494115
H -2.871798957  0.210471651  1.019134044
C -1.099039708  0.000614646 -0.000734175
C  0.178097460  0.000249877  0.000288674
C  1.466716043 -0.000118171  0.001320718
C  2.728288416 -0.000478495  0.002331101
H  3.816718996 -0.000789366  0.003202817

