%NProcShared=1
#p b3lyp/6-311++G(3df,2p) freq symmetry=Loose

 b3lyp opt

3 4
C -0.342036980  0.947780996  0.000093757
H -0.669716993  1.838899999  0.734807117
H -0.669967993  1.838954999 -0.734440883
C -1.317665952 -0.245338011  0.000215765
H -2.431789944 -0.268454012  0.000405232
C -0.282130014 -1.096689997  0.000006989
C  1.110619967 -0.899515993 -0.000223561
C  1.123798979  0.527182005 -0.000172405
H  2.015962927  1.190087016 -0.000300004

