%NProcShared=1
#p b3lyp/6-311++G(3df,2p) freq symmetry=Loose

 b3lyp opt

3 4
C -1.595826000 -0.000014587 -0.199221994
C -0.644350095  1.043872768  0.067760662
H -0.676392711  2.126812140  0.293753011
C  1.793404000 -0.000002743 -0.031861002
H  2.726014556  0.780326054 -0.137347722
C -0.644348905 -1.043869220  0.067884337
H -0.676390289 -2.126781846  0.294004989
C  0.407914000  0.000000917  0.043245995
H  2.726015444 -0.780342970 -0.137255270

