%NProcShared=1
#p b3lyp/6-311++G(3df,2p) freq symmetry=Loose

 b3lyp opt

1 4
C -1.456030978  0.000247187  0.266395008
H -2.369465989  0.000438701 -0.319469996
H -1.627798959  0.000212478  1.340190014
C -0.321794324  0.864769242 -0.192015345
C -0.322090654 -0.864608750 -0.192118648
H -0.337438553 -1.649153928 -0.940861000
C  0.759286002 -0.000123421  0.115918001
C  2.119226942 -0.000358202  0.145287980
H -0.336873341  1.649409079 -0.940663963

