%NProcShared=1
#p b3lyp/6-311++G(3df,2p) freq symmetry=Loose

 b3lyp opt

2 3
C -1.295515298 -0.326465896 -0.000004918
H -1.943809058 -0.615219072 -0.865444165
H -1.943850645 -0.615238085  0.865396831
C -0.721391746  1.025058118  0.000023723
C  0.721464256  1.025007882  0.000058391
C -0.000033791 -0.986846996  0.000018955
C  1.295493697 -0.326556106  0.000057337
H  1.943767348 -0.615373439  0.865490239
H  1.943808935 -0.615354427 -0.865350757

