%NProcShared=1
#p b3lyp/6-311++G(3df,2p) freq symmetry=Loose

 b3lyp opt

2 3
C -0.451493297 -1.117483742  0.038172337
C -0.452591658  1.117013196  0.038157663
C -1.354283935 -0.000680468 -0.220767999
H -0.656200989 -1.653052302  0.995503355
H -0.333818902  1.900971212 -0.733362484
H -0.657825770  1.652392824  0.995481648
H -0.331949891 -1.901334749 -0.733337513
C  0.623917081  0.000294536  0.178975001
C  1.964418771  0.000951479 -0.121919003

