%NProcShared=1
#p b3lyp/6-311++G(3df,2p) freq symmetry=Loose

 b3lyp opt

0 3
C -0.328388973 -1.076518991  0.000033487
C -0.304653984  0.935091005 -0.000012359
H -0.225717048  1.529007929  0.904289480
H -0.225833902  1.528968088 -0.904350556
H -2.087142992 -0.092924393  0.890996489
C -1.459884015 -0.101260005  0.000085109
H -2.087258108 -0.092963642 -0.890745577
C  0.785262009 -0.250879997 -0.000056652
C  2.078656967  0.014886989 -0.000146071

