%NProcShared=1
#p b3lyp/6-311++G(3df,2p) freq symmetry=Loose

 b3lyp opt

3 4
C -0.071061000 -0.170377000  0.000466000
C  1.212003000 -0.005876000  0.000187000
C -1.423685972 -0.462056141  0.000919819
H -1.705796918 -1.550828502  0.002402556
C -2.457655010  0.555854706 -0.000408901
H -3.569443981  0.598868570 -0.000417712
C  2.567847978  0.160169337 -0.000097311
H  3.044737916  1.180022429 -0.001495615
H  3.270602023 -0.720298308  0.001060491

