%NProcShared=1
#p b3lyp/6-311++G(3df,2p) freq symmetry=Loose

 b3lyp opt

3 4
C -1.319929009 -0.329728011  0.000186923
H -1.331030075 -1.474185096  0.000327542
H -0.168319814  1.284843315 -0.870194756
C -0.105841021  0.538515973 -0.000035802
C -2.601978961 -0.093743950  0.000281542
H -0.168152329  1.285055503  0.869953128
C  1.224974001  0.036515001 -0.000102677
C  2.485767007 -0.249484991 -0.000189152
H  3.569314013 -0.508039983 -0.000261914

