%NProcShared=4
#p b3lyp/6-311++G(3df,2p) freq symmetry=Loose

 b3lyp opt

2 3
    C    1.347149   -0.892341   -0.131624
    C    0.260978   -0.120964    0.095089
    H    2.170413    0.956765    0.803131
    C   -1.178294    0.041956    0.360903
    H   -1.466281    0.955107    0.978333
    H   -1.637166   -0.848019    0.925702
    C   -2.237016    0.106402   -0.539554
    C    1.648266    0.504399   -0.071969
    H    1.886529    1.099431   -0.984237

