%NProcShared=4
#p b3lyp/6-311++G(3df,2p) freq symmetry=Loose

 b3lyp opt

0 3
    C    1.439319    0.417248    0.641802
    C   -1.644958    0.593679    0.000267
    H   -2.725432    0.598969    0.001677
    H   -1.143368    1.551616   -0.000195
    C   -0.957711   -0.563080   -0.000325
    H   -1.507729   -1.498729    0.000316
    C    0.477008   -0.693160   -0.001921
    H    0.868383   -1.705585   -0.004722
    C    1.437950    0.420904   -0.640958

