%NProcShared=4
#p b3lyp/6-311++G(3df,2p) freq symmetry=Loose

 b3lyp opt

2 3
    C   -1.194317    0.070428   -0.014351
    C    1.292686   -0.228322    0.188311
    H    1.335942   -1.109156    0.894104
    C    2.461691   -0.320434   -0.292628
    C    0.088801    0.696057    0.055988
    H    0.086252    1.393780    0.921512
    H    0.201525    1.367315   -0.815338
    C   -2.358117   -0.366863   -0.079756
    H   -3.369372   -0.753308   -0.143255

