%NProcShared=4
#p b3lyp/6-311++G(3df,2p) freq symmetry=Loose

 b3lyp opt

1 4
    C   -0.495670   -0.881617   -0.190899
    C    0.667176   -0.131776    0.400487
    H    0.785763   -0.307529    1.472179
    C    1.858973    0.035884   -0.359277
    H    2.917748    0.055072   -0.151142
    C   -1.583549   -0.092258   -0.054206
    H   -2.634898   -0.089335   -0.285500
    C   -0.552148    0.826227    0.093657
    H   -0.437306    1.803038   -0.374112

