%NProcShared=1
#p b3lyp/6-311++G(3df,2p) freq symmetry=Loose

 b3lyp opt

3 4
H  0.000180582  1.416352200  0.888986620
C  0.000159720  0.678500998 -0.000056923
H  0.000196633  1.416278790 -0.889161387
C -1.269043949  0.009857691 -0.000040776
C -2.469800735 -0.444597795 -0.000032854
H -3.508261337 -0.842370154 -0.000025807
C  1.269311028  0.009758309 -0.000017858
C  2.470032224 -0.444791200  0.000011747
H  3.508461675 -0.842644874  0.000037546

