%NProcShared=4
#p b3lyp/6-311++G(3df,2p) freq symmetry=Loose

 b3lyp opt

3 4
    C    0.494860   -1.203147    0.001125
    C    0.757949    0.920081    0.000440
    C    1.625788   -0.275044   -0.002016
    H    0.845403    1.660070    0.875886
    H    0.843277    1.662797   -0.872697
    C   -0.459171   -0.068090    0.001127
    C   -1.877481    0.042391   -0.000682
    H   -2.471527    0.090188    0.959542
    H   -2.468819    0.089804   -0.962698

