%NProcShared=4
#p b3lyp/6-311++G(3df,2p) freq symmetry=Loose

 b3lyp opt

0 1
    C    1.949628    0.647936   -0.129211
    C   -1.298486    0.569576    0.284737
    H   -2.230545    0.387553    0.812805
    H   -1.030933    1.619777    0.240974
    C   -0.315573   -0.550235    0.335082
    H   -0.573238   -1.431786    0.907426
    C   -1.115696   -0.258289   -0.927340
    C    1.116195   -0.310809    0.109309
    H    1.818304   -1.164618    0.003337

