%NProcShared=1
#p b3lyp/6-311++G(3df,2p) freq symmetry=Loose

 b3lyp opt

1 4
C -1.367531632  0.675195812 -0.090964120
C -0.216470974 -0.000605106  0.219370379
H -1.900371335  1.603202633 -0.232614996
C  1.231165059 -0.001865319  0.524706853
H  1.518159884 -0.900875842  1.077961696
H  1.518546451  0.893567405  1.083535129
C  1.848113786  0.002237398 -0.839010086
C -1.367822275 -0.673969251 -0.095154546
H -1.901061567 -1.600848600 -0.242566588

