%NProcShared=1
#p b3lyp/6-311++G(3df,2p) freq symmetry=Loose

 b3lyp opt

2 3
C -0.214561998  1.047492001 -0.000001934
C -1.352491004 -0.142992001 -0.000067958
C  1.177980000  0.393840000  0.000054938
H -0.390553501  1.629056436 -0.920784465
H -0.390638510  1.629035561  0.920777529
H -2.434422964 -0.004700991 -0.000116334
H  2.123510987  0.942498997  0.000104805
C -0.387539000 -1.009573000 -0.000033238
C  0.958630001 -0.988082000  0.000029147

