%NProcShared=4
#p b3lyp/6-311++G(3df,2p) freq symmetry=Loose

 b3lyp opt

0 3
    C    0.692851   -0.075598    0.208866
    C   -0.482394    0.979391    0.018041
    H    1.167612   -0.049468    1.238057
    H   -0.364309    1.578217   -0.884775
    H   -0.662321    1.610328    0.888865
    C    2.008137   -0.052398   -0.309149
    C   -1.413033   -0.235160   -0.125819
    C   -0.417446   -1.088089    0.055083
    H   -2.469667   -0.307955   -0.324283

