%NProcShared=4
#p b3lyp/6-311++G(3df,2p) freq symmetry=Loose

 b3lyp opt

0 3
    C   -1.282726   -0.000267   -0.000018
    H   -1.929988   -0.059923    0.878131
    H   -1.929214    0.059362   -0.878740
    C   -0.306486   -1.142349   -0.049124
    C   -0.307053    1.142273    0.049325
    C    0.960929   -0.749845    0.025940
    H    1.854301   -1.348323    0.124681
    C    0.960531    0.750170   -0.026065
    H    1.853734    1.348992   -0.124417

