%NProcShared=4
#p b3lyp/6-311++G(3df,2p) freq symmetry=Loose

 b3lyp opt

3 4
    C   -0.338896   -1.104546   -0.249397
    C    1.098698   -0.698389   -0.016185
    H    1.940783   -1.364958    0.312309
    C    1.011126    0.740832    0.089047
    H    1.807701    1.508774    0.170322
    C   -0.499002    0.969493   -0.033595
    H   -0.826314    1.750032   -0.812152
    C   -1.352804   -0.173280    0.192029
    H   -2.436899   -0.298510    0.438127

