%NProcShared=4
#p b3lyp/6-311++G(3df,2p) freq IOp(2/17=3) IOp(2/18=3)

 b3lyp opt

0 1
C -0.366642924 -1.193054040  0.000042942
C -0.280235939  1.000707968 -0.000115791
H -0.177214210  1.605856883  0.894270214
H -0.176948539  1.605716985 -0.894565797
H -2.027946946 -0.088573810  0.877049006
C -1.377269046 -0.055509976 -0.000196116
H -2.027686347 -0.088711036 -0.877629289
C  0.743876043 -0.252542023  0.000134318
C  2.015237869 -0.005316931  0.000303802

