%NProcShared=1
#p b3lyp/6-311++G(3df,2p) freq symmetry=Loose

 b3lyp opt

1 2
C  2.118867347 -0.451740705  0.001064611
H  2.758475349 -0.259818702  0.872409001
H  2.759542349 -0.258667702 -0.869240999
H  1.772563471 -1.479653571  0.000173138
C -0.274785158  0.259754830  0.000068375
C -1.504188713 -0.007546690 -0.000861455
C -2.799761664 -0.280767559 -0.001835734
C  1.030325414  0.545429368  0.001056727
H  1.286677122  1.607361053  0.001915574

