%NProcShared=4
#p b3lyp/6-311++G(3df,2p) freq symmetry=Loose

 b3lyp opt

0 3
    C    2.237015   -0.299784    0.000089
    H    2.057410   -1.371290   -0.000062
    H    2.841140   -0.032746    0.873429
    H    2.841325   -0.032630   -0.873036
    C   -0.268168   -0.047058   -0.000281
    C   -1.551851   -0.031818   -0.000105
    C   -2.859722   -0.125598    0.000212
    C    0.973542    0.482159    0.000005
    H    1.075236    1.569262    0.000150

