%NProcShared=4
#p b3lyp/6-311++G(3df,2p) freq symmetry=Loose

 b3lyp opt

0 3
    C    1.763445   -0.715928   -0.009889
    H    1.199060   -1.646663   -0.075034
    H    2.843373   -0.804676    0.021920
    C    1.165577    0.440640    0.030923
    C   -1.261452    0.032401   -0.132496
    C   -2.034414   -0.926283    0.078225
    C   -0.196688    1.019841    0.022153
    H   -0.368842    1.612862    0.926600
    H   -0.292395    1.734459   -0.806981

