%NProcShared=1
#p b3lyp/6-311++G(3df,2p) freq symmetry=Loose

 b3lyp opt

0 3
C -0.686560823  0.001694941  0.954681998
C  0.061429242  1.001580729  0.036361647
H  0.019492321  2.078240098  0.030585141
C  0.056569877 -1.001860472  0.036419351
H  0.009410585 -2.078304068  0.030704860
H  1.985436391 -0.004834721 -0.736438005
C  1.208898527 -0.002929129  0.030603006
C -0.698365853  0.001674717 -0.741609002
H -1.666166941  0.004008245 -1.223599001

