%NProcShared=4
#p b3lyp/6-311++G(3df,2p) freq IOp(2/17=3) IOp(2/18=3)

 b3lyp opt

1 2
C  1.158106750 -0.493073189  0.001237885
H  1.171954133 -1.578841489  0.003711059
H  2.117083000  0.006221761  0.000089547
H -1.172932366 -1.578177110  0.003736360
C  0.000000509  0.118585430  0.817970113
C -0.000018202  0.114858202 -0.818246028
C  0.000319568  1.275943671 -0.002778617
C -1.158469775 -0.492416832  0.001262881
H -2.117162964  0.007421455  0.000135234

