%NProcShared=4
#p b3lyp/6-311++G(3df,2p) freq symmetry=Loose

 b3lyp opt

2 3
    C   -0.709125   -0.000146    0.052248
    C   -2.081715   -0.000342    0.102795
    C    0.302127    1.027366    0.017958
    H    0.276899    2.120298    0.027818
    C    0.302412   -1.027377    0.018103
    H    0.277484   -2.120313    0.028093
    H    2.038717    0.000172   -0.934293
    C    1.398720    0.000144   -0.027945
    H    2.116683    0.000298    0.817544

