%NProcShared=1
#p b3lyp/6-311++G(3df,2p) freq symmetry=Loose

 b3lyp opt

3 2
C -0.363696999 -0.000028002  0.000035098
C  0.976448000  0.000056998  0.000073503
C -1.622472001 -0.679364995  0.000072997
H -2.069847996 -1.697828016  0.000171086
C -1.622448000  0.679503000 -0.000074985
H -2.069454007  1.698149026 -0.000198730
C  2.342936000  0.000184998  0.000112658
H  2.937539998 -0.962746992  0.000234566
H  2.937372003  0.963229989  0.000024820

