%NProcShared=1
#p b3lyp/6-311++G(3df,2p) freq symmetry=Loose

 b3lyp opt

2 1
C -1.454839569  0.686483852 -0.082292991
C -0.298598933  0.000001219  0.103714222
H -2.006642644  1.619472415 -0.166275483
C  1.169377071 -0.000621736  0.365507237
H  1.543159796 -0.903321962  0.953545482
H  1.543639410  0.900832782  0.955149207
C  2.193822716 -0.000066382 -0.565626951
C -1.455204305 -0.685534800 -0.083512588
H -2.007503311 -1.618079071 -0.169153365

