%NProcShared=1
#p b3lyp/6-311++G(3df,2p) freq symmetry=Loose

 b3lyp opt

2 1
C  1.629469004 -0.996752989 -0.000191880
C  0.235361979  0.304478937  0.000131710
H  2.138090963  0.912364039  0.900484826
C -0.988298999  0.103504004 -0.000100620
C -2.322815952 -0.081028853 -0.000340676
H -2.753246841 -1.090571517 -0.000783336
H -3.003493024  0.780564927 -0.000095697
C  1.693006956  0.417230867  0.000359773
H  2.138319033  0.913055949 -0.899271477

