%NProcShared=4
#p b3lyp/6-311++G(3df,2p) freq symmetry=Loose

 b3lyp opt

0 3
    C    0.938829   -0.736295    0.000304
    H    1.460718   -1.110823    0.884961
    H    1.463875   -1.111544   -0.882309
    C   -0.506039   -1.074731   -0.000745
    C   -0.397071    1.136617    0.000549
    C   -1.308515   -0.009577    0.000606
    H   -2.385690    0.030847    0.002767
    C    0.887663    0.811670   -0.000670
    H    1.772422    1.427384   -0.003527

