%NProcShared=4
#p b3lyp/6-311++G(3df,2p) freq symmetry=Loose

 b3lyp opt

1 4
    C    0.248931    1.186750   -0.000143
    H    0.342169    1.842613   -0.876061
    H    1.838422   -2.006434    0.000062
    H   -2.516352   -1.300402    0.000221
    C   -0.927263    0.340029   -0.000552
    C    1.321370    0.176279    0.000152
    C   -1.747552   -0.557922   -0.000302
    H    0.341680    1.842786    0.875671
    C    1.101684   -1.206844   -0.000114

