%NProcShared=1
#p b3lyp/6-311++G(3df,2p) freq symmetry=Loose

 b3lyp opt

1 4
C -0.518394000 -1.089124000 -0.000045000
C  0.495415000 -0.046232000 -0.000209000
C  1.881116715 -0.009848850 -0.000690135
H  2.410946576  0.934707223 -0.000701932
H  2.454951618 -0.927779799 -0.001061982
C -0.575644801  0.940440895  0.000350623
H -0.621485903  2.019136949  0.000566319
C -1.551185863 -0.109614072  0.000499824
H -2.632257913 -0.139794045  0.000874856

