%NProcShared=1
#p b3lyp/6-311++G(3df,2p) freq symmetry=Loose

 b3lyp opt

1 4
C -0.167713000  0.957888000  0.000409000
C  1.162403000  0.478086000 -0.000133000
H -0.354341839  2.024530969  0.000557730
H  1.946372513  1.228505902 -0.000377308
C  1.561065491 -0.885752903 -0.000384182
H  0.835508976 -1.687224996 -0.000165857
H  2.611443253 -1.138543858 -0.000803022
C -1.232750856  0.101371973  0.000752748
C -2.163217627 -0.722630071  0.001047556

