%NProcShared=4
#p b3lyp/6-311++G(3df,2p) freq symmetry=Loose

 b3lyp opt

2 3
    C   -2.162951    0.583843    0.001218
    C    1.571366   -0.532982    0.000660
    H    1.663321    1.828131   -0.001220
    H    2.290512   -1.347462    0.001113
    C    0.278965   -0.092644    0.000098
    C    1.301714    0.803400   -0.000413
    C   -1.162754   -0.469061   -0.000684
    H   -1.456041   -1.120362    0.862781
    H   -1.455836   -1.115640   -0.867949

