%NProcShared=1
#p b3lyp/6-311++G(3df,2p) freq symmetry=Loose

 b3lyp opt

0 3
C  0.123876000 -1.096526000  0.000102190
C -0.659417995  1.132686992 -0.000132881
H  0.186018007 -2.179622010  0.000198393
H -1.789193746 -0.503623485  0.870520270
C  0.696262012  1.105689982 -0.000053897
C -1.158853997 -0.297429004 -0.000038742
H -1.789095271 -0.503772489 -0.870633744
C  1.191742980 -0.225382970  0.000088035
H  2.230617005 -0.527216008  0.000172621

