%NProcShared=4
#p b3lyp/6-311++G(3df,2p) freq symmetry=Loose

 b3lyp opt

3 4
    C    1.628761    0.999053    0.089334
    C    0.402429   -0.233514   -0.041483
    C   -0.968070   -0.482727   -0.001603
    H   -1.186866   -1.597096   -0.013954
    C   -2.162490    0.326985   -0.003150
    H   -2.373407    1.092962   -0.783664
    H   -2.953126    0.127089    0.757435
    C    1.746678   -0.366709   -0.021060
    H    2.629550   -1.081478   -0.092047

