%NProcShared=1
#p b3lyp/6-311++G(3df,2p) freq symmetry=Loose

 b3lyp opt

3 2
C -1.096444003 -0.290922999  0.000074952
H -1.060483973 -1.443028011 -0.000004018
C  1.438279961 -0.021317984 -0.000301223
C  2.665001000 -0.337627000 -0.000511740
C -2.396280941 -0.090068024  0.000289460
H -3.517929968 -0.069573013  0.000464828
C  0.130163977  0.533368010 -0.000062891
H  0.066182390  1.376079056  0.791833727
H  0.065936630  1.376179936 -0.791832244

