%NProcShared=4
#p b3lyp/6-311++G(3df,2p) freq symmetry=Loose

 b3lyp opt

2 3
    C    0.517077   -0.188838    0.433488
    C   -1.725723   -0.118753   -0.020225
    C   -0.608727   -0.849849   -0.349553
    H    0.538335   -0.460968    1.488680
    C    1.792769    0.061152   -0.200409
    H    2.711565   -0.071170    0.379239
    H    1.886207    0.382932   -1.241363
    C   -0.729492    0.809491    0.063752
    H   -0.611526    1.869986   -0.188872

