%NProcShared=4
#p b3lyp/6-311++G(3df,2p) freq symmetry=Loose

 b3lyp opt

2 1
    C    0.001886    2.267034    0.000000
    H   -0.937329    2.851834    0.000000
    H    0.941542    2.850957    0.000000
    C    0.001046    0.988391    0.000000
    C    0.000000   -0.354251    0.000000
    C    0.662476   -1.585592    0.000000
    H    1.649054   -2.047771    0.000000
    C   -0.665554   -1.583812    0.000000
    H   -1.652390   -2.045640    0.000000

