%NProcShared=1
#p b3lyp/6-311++G(3df,2p) freq symmetry=Loose

 b3lyp opt

1 2
C  1.361795288 -0.737150084  0.000170007
C  1.361459501  0.737820771  0.000157084
C  0.043046040  0.000035158  0.000019564
H  1.546293182 -1.281959738  0.921709392
H  1.545910565  1.282714419 -0.921342014
H  1.545709313  1.282730520  0.921686922
H  1.546494433 -1.281975840 -0.921319544
C -1.233667000 -0.000255495 -0.000119845
C -2.563368786 -0.000558212 -0.000265040

