%NProcShared=4
#p b3lyp/6-311++G(3df,2p) freq IOp(2/17=3) IOp(2/18=3)

 b3lyp opt

0 1
C -1.127750434 -0.517552139  0.000236019
H -1.169058091 -1.600739335  0.000443118
H -2.086932643 -0.016744840  0.000148347
H  1.163989873 -1.604297765  0.000424528
C  0.000062140  0.103877789 -0.802004412
C  0.000075390  0.104184003  0.802220523
C  0.002003028  1.372211824 -0.000134030
C  1.125986612 -0.520989601  0.000218060
H  2.086692043 -0.023110569  0.000115090

