%NProcShared=1
#p b3lyp/6-311++G(3df,2p) freq symmetry=Loose

 b3lyp opt

2 3
C -0.027277000  0.550549000  0.000144000
C  1.189835000 -0.179504000 -0.000100000
H  0.034642989  1.650120141  0.000467822
H  1.248727008 -1.325554109 -0.000440355
C  2.451457992 -0.105696899 -0.000107247
H  3.532975988 -0.232849849 -0.000169786
C -1.297122997  0.072078963  0.000031739
C -2.524467994 -0.260173077 -0.000038251
H -3.569877998 -0.552323029 -0.000100572

