%NProcShared=4
#p b3lyp/6-311++G(3df,2p) freq IOp(2/17=3) IOp(2/18=3)

 b3lyp opt

0 1
C  1.133420982  1.039677007  0.000090010
H  0.862968982  1.606979007 -0.889852186
H  0.862781982  1.607052007  0.889928814
H  2.211668996  0.887848001  0.000209528
C -2.012568953  0.514800982 -0.000219008
C  0.393864995 -0.290418998  0.000066861
C  1.149242996 -1.355687998  0.000189921
C -1.059379012 -0.367651995 -0.000082662
H -1.564905058 -1.346190978 -0.000095641

