%NProcShared=4
#p b3lyp/6-311++G(3df,2p) freq symmetry=Loose

 b3lyp opt

1 2
    C    0.946701    0.611776    0.305821
    H    1.262860    1.083533    1.229958
    C    1.269783   -0.683654   -0.192753
    C   -0.060559   -0.803727   -0.004945
    H   -1.561020    0.077369    1.293075
    C   -0.320919    0.713538   -0.460106
    H   -0.346599    0.917636   -1.521457
    C   -1.359732   -0.109233    0.242365
    H   -2.206893   -0.450742   -0.343873

