%NProcShared=1
#p b3lyp/6-311++G(3df,2p) freq symmetry=Loose

 b3lyp opt

1 4
C -1.779402998 -0.545000987 -0.000065241
C -0.432115000 -0.263883002 -0.000023596
C  0.928673000 -0.582838000 -0.000032037
H  1.155306002 -1.651227989 -0.000118491
C  1.988515000  0.391876997  0.000063849
H  2.461052503  0.690029979 -0.930809305
H  2.461027496  0.689874017  0.930999636
C -1.444412001  0.744135993  0.000047248
H -1.644932005  1.805573969  0.000133471

