%NProcShared=4
#p b3lyp/6-311++G(3df,2p) freq symmetry=Loose

 b3lyp opt

3 4
    C   -1.007030   -0.655733   -0.000121
    C    0.406110   -0.943936   -0.000302
    H   -1.713286   -1.215236   -0.772355
    H   -1.711541   -1.214340    0.774359
    C   -0.933705    0.837426   -0.000059
    H   -1.747214    1.593949    0.000212
    C    0.474465    1.029639   -0.000059
    C    1.487701   -0.108240    0.000058
    H    2.606798   -0.119306    0.000684

