%NProcShared=1
#p b3lyp/6-311++G(3df,2p) freq symmetry=Loose

 b3lyp opt

0 3
C -0.868767775  0.772493328  0.000130022
C -0.868690226 -0.772580670 -0.000090476
C  0.608263714 -1.070141993 -0.000162646
C  1.421705999  0.000071294 -0.000026277
C  0.608156288  1.070202917  0.000142804
H -1.351045951  1.220099411  0.872570878
H -1.350958547 -1.220235167 -0.872511939
H -1.350923456 -1.220484158  0.872222581
H -1.351081042  1.220348402 -0.872163642

