%NProcShared=4
#p b3lyp/6-311++G(3df,2p) freq symmetry=Loose

 b3lyp opt

0 3
    C    1.470642   -0.950157   -0.042230
    C    0.476990    0.136161   -0.001072
    H    2.578250    1.144195    0.018164
    C   -0.821765    0.526856    0.019523
    C    1.806299    0.390417   -0.001309
    C   -2.123138   -0.138872    0.006227
    H   -2.718295    0.183569   -0.853330
    H   -2.014836   -1.228201   -0.034483
    H   -2.702974    0.119288    0.897468

