%NProcShared=1
#p b3lyp/6-311++G(3df,2p) freq symmetry=Loose

 b3lyp opt

0 1
C -1.139305001  0.033541007 -0.000637969
C  0.246108994  0.106304054 -0.000556287
C  1.354309037  0.777799692 -0.001035101
H -3.397163933 -0.151082560 -0.000712496
H  1.845996114  1.733634041 -0.001831276
C  1.527119935 -0.707638451  0.000301117
H  1.827298779 -1.218066769 -0.912255024
H  1.827106021 -1.216446554  0.913824943
C -2.338685962 -0.068985316 -0.000673606

