%NProcShared=4
#p b3lyp/6-311++G(3df,2p) freq symmetry=Loose

 b3lyp opt

1 4
    C    1.255673   -0.797018    0.000122
    H    1.495714   -1.360754    0.908357
    C    0.138315    0.170493    0.000236
    C    1.399185    0.660637   -0.000244
    H    2.061858    1.512999   -0.001488
    H    1.495597   -1.361484   -0.907499
    C   -1.223408    0.457732    0.000342
    H   -1.561935    1.494466    0.000977
    C   -2.151637   -0.539382   -0.000515

