%NProcShared=1
#p b3lyp/6-311++G(3df,2p) freq symmetry=Loose

 b3lyp opt

2 1
C  0.498447460  0.827005026 -0.000059493
H  2.338571984 -0.000224927  0.912320990
C -0.613460997  0.000046852 -0.000169998
C -2.019389986  0.000154729  0.000038009
H -2.568390358  0.946730353  0.000364440
H -2.568535627 -0.946336653  0.000270569
C  0.498320530 -0.827081969 -0.000141514
C  1.712576994 -0.000131656  0.000098996
H  2.339390999 -0.000134550 -0.911558001

