%NProcShared=4
#p b3lyp/6-311++G(3df,2p) freq symmetry=Loose

 b3lyp opt

0 3
    C    0.452230   -1.062624   -0.008479
    H    0.452338   -1.652941   -0.924314
    H    0.524000   -1.724593    0.855074
    C   -0.678279    0.023667    0.059459
    C   -2.066502   -0.007724   -0.019925
    C    1.357572    0.157933   -0.009234
    H    2.432423    0.269245    0.033980
    C    0.323612    1.051652   -0.010736
    H    0.260053    2.129947   -0.025278

