%NProcShared=1
#p b3lyp/6-311++G(3df,2p) freq symmetry=Loose

 b3lyp opt

2 3
C  0.001067336 -1.024162860  0.348755016
C -1.064935507 -0.000917819  0.071358245
H -2.151015750 -0.001996553  0.005896406
H  2.150963767  0.002033124  0.005529722
C -0.000109511 -0.001221301 -0.987772211
C  1.064894546  0.001117977  0.071176656
H  0.002036639 -2.116271125  0.447778089
C -0.001061857  1.025052279  0.346198359
H -0.002014740  2.117404249  0.442496010

