%NProcShared=1
#p b3lyp/6-311++G(3df,2p) freq symmetry=Loose

 b3lyp opt

2 3
C -1.034815987 -0.695267001  0.000115253
C  0.448150000 -0.914727000 -0.000051392
H -1.531259480 -1.092126737 -0.903593761
H -1.531058515 -1.092141264  0.903928256
C -0.941252988  0.829168999  0.000117102
H -1.718628945  1.596696996  0.000209701
C  0.434358987  0.888980001 -0.000035362
C  1.463951984 -0.009951999 -0.000157059
H  2.558594984 -0.001646999 -0.000278698

