%NProcShared=1
#p b3lyp/6-311++G(3df,2p) freq symmetry=Loose

 b3lyp opt

0 3
C -0.437922997 -0.000043536 -0.062693069
C  0.652465051 -0.884668476  0.142493484
C  0.652416956  0.884377868  0.143623358
C -1.905706001 -0.000102713 -0.032516968
H -2.316002972  0.000533861 -1.046666657
H -2.280516333 -0.890090418  0.473191251
H -2.280564707  0.889217903  0.474327680
C  1.719911993  0.000076324 -0.158505845
H  2.791192991  0.000070044 -0.103072787

