%NProcShared=1
#p b3lyp/6-311++G(3df,2p) freq symmetry=Loose

 b3lyp opt

3 4
C -1.291213000  0.059512000 -0.000069000
C  0.004935000  0.497091000 -0.000142000
H  0.080865014  1.609756896 -0.000450385
C -2.588592993 -0.188503048 -0.000049079
H -3.678968984 -0.411891115 -0.000028156
C  1.174240990 -0.301127924  0.000125891
H  1.141820967 -1.439579754  0.000443149
C  2.506064003 -0.032600023  0.000101545
H  3.623676012  0.035483912  0.000125108

