%NProcShared=4
#p b3lyp/6-311++G(3df,2p) freq symmetry=Loose

 b3lyp opt

2 3
    C    0.708177   -0.826572    0.000000
    C   -0.533228   -1.268695    0.000000
    C   -1.208097    0.086618    0.000000
    H   -1.831002    0.219892   -0.903664
    H   -1.831002    0.219892    0.903664
    C    0.000000    1.052949    0.000000
    H   -0.109432    2.144715    0.000000
    C    1.279132    0.393619    0.000000
    H    2.295533    0.787991    0.000000

