%NProcShared=4
#p b3lyp/6-311++G(3df,2p) freq symmetry=Loose

 b3lyp opt

2 1
    C    0.657310    0.044717   -0.038802
    C   -0.726238   -0.351579   -0.515514
    C   -1.540772   -0.820597    0.500188
    C   -0.372389    1.109721    0.102621
    H   -0.663386    1.346614    1.130596
    H   -0.428902    1.892860   -0.656169
    H   -0.939719   -0.476576   -1.588304
    C    1.840694   -0.336485    0.101720
    H    2.883556   -0.639517    0.209283

