%NProcShared=4
#p b3lyp/6-311++G(3df,2p) freq symmetry=Loose

 b3lyp opt

2 3
    C   -1.307500   -0.409603    0.041452
    C    2.385840   -0.172573   -0.003191
    H   -1.186886   -1.504355    0.065535
    H    2.899726   -0.450286   -0.933326
    H    2.963241   -0.139281    0.930811
    C   -2.620168    0.020251   -0.026747
    C    1.051166    0.133520   -0.007463
    C   -0.220089    0.511472   -0.009355
    H   -0.411729    1.596049   -0.031389

