%NProcShared=1
#p b3lyp/6-311++G(3df,2p) freq symmetry=Loose

 b3lyp opt

1 4
C  1.415871013  0.437349916 -0.000267595
H  1.751098103  1.481654315 -0.001462456
C -1.179590951  0.025593674 -0.000240541
C  0.070912029  0.182243807 -0.000203408
C  2.347627859 -0.554346058  0.001092431
H  3.427194764 -0.627725424  0.001375253
C -2.500400946 -0.156029359 -0.000260329
H -3.052233706 -0.232520662 -0.933546840
H -3.052570196 -0.230276992  0.933008353

