%NProcShared=4
#p b3lyp/6-311++G(3df,2p) freq symmetry=Loose

 b3lyp opt

1 4
    C    2.410734    0.215655   -0.000124
    H    2.351644    1.311139   -0.004292
    H    2.984732   -0.127576   -0.872696
    H    2.980136   -0.120632    0.878271
    C    1.129256   -0.409519   -0.000293
    C   -0.183736   -0.183054   -0.000142
    C   -1.416237    0.009852   -0.000213
    C   -2.715380    0.236649   -0.000416
    H   -3.661327   -0.286426   -0.000470

