%NProcShared=4
#p b3lyp/6-311++G(3df,2p) freq symmetry=Loose

 b3lyp opt

1 4
    C   -0.414096   -1.046798   -0.000098
    H   -0.365665   -2.122392   -0.000853
    C   -0.516276    1.028900   -0.000285
    H   -0.574570    2.104145   -0.000087
    C    0.562722    0.047776   -0.000255
    C   -1.444271   -0.055771    0.000299
    H   -2.525712   -0.109161    0.000985
    C    1.924532    0.132850    0.000212
    H    2.790274   -0.514333    0.000720

