%NProcShared=4
#p b3lyp/6-311++G(3df,2p) freq symmetry=Loose

 b3lyp opt

3 1
    C    0.000000    0.000000    2.356104
    C    0.000000    0.000000    0.638778
    C    0.000000    0.869674   -0.459499
    C    0.000000    0.000000   -1.618702
    C    0.000000   -0.869674   -0.459499
    H    0.000000    0.000000   -2.743088

