%NProcShared=4
#p b3lyp/6-311++G(3df,2p) freq symmetry=Loose

 b3lyp opt

0 2
    H    0.585494    1.759503   -0.660057
    C    0.469106    0.845417   -0.092688
    C   -0.642462   -0.073233   -0.103636
    C   -1.912521   -0.042284    0.191203
    C    1.370569   -0.085249    0.446135
    C    0.617726   -0.937900   -0.331005

