%NProcShared=4
#p b3lyp/6-311++G(3df,2p) freq IOp(2/17=3) IOp(2/18=3)

 b3lyp opt

3 3
C -2.353426000 -0.497862000  0.000059000
C -1.320494000  0.310017000 -0.000003000
C  0.052955001  0.105798003 -0.000018658
C  1.319952003 -0.024355992 -0.000036145
C  2.598534995 -0.124474012 -0.000055423
H -1.785635997  1.385648008 -0.000050272

