%NProcShared=4
#p b3lyp/6-311++G(3df,2p) freq symmetry=Loose

 b3lyp opt

2 2
    H    0.000000    0.000000    3.129554
    C    0.000000    0.000000    2.039464
    C    0.000000    0.000000    0.794946
    C    0.000000    0.000000   -0.612937
    C    0.000000    1.194270   -1.371533
    C    0.000000   -1.194270   -1.371533

