%NProcShared=1
#p b3lyp/6-311++G(3df,2p) freq symmetry=Loose

 b3lyp opt

3 3
C  2.291370619  0.004668389  0.003242507
C  0.728102155  0.000802708  0.000037119
C -0.460402203 -0.792276172 -0.002158699
C -1.633492659 -0.005037090 -0.004805188
C -0.464308921  0.787994014 -0.002648986
H -2.763416879 -0.007831189 -0.007122030

