%NProcShared=4
#p b3lyp/6-311++G(3df,2p) freq symmetry=Loose

 b3lyp opt

3 3
    C    1.327394    0.000125   -0.000226
    C   -1.087341   -0.660052   -0.218989
    C   -1.087665    0.660382    0.218786
    C    0.218874    0.912904   -0.158044
    C    0.218808   -0.913559    0.158444
    H    2.459587    0.001195    0.000176

