%NProcShared=4
#p b3lyp/6-311++G(3df,2p) freq symmetry=Loose

 b3lyp opt

1 3
    C    1.112591    1.550900    0.000000
    C   -0.106942    0.800970   -0.000002
    C   -0.282732   -0.505707    0.771158
    C   -0.280977   -1.591314   -0.000000
    C   -0.282732   -0.505705   -0.771156
    H   -0.953293    1.506855    0.000000

