%NProcShared=4
#p b3lyp/6-311++G(3df,2p) freq symmetry=Loose

 b3lyp opt

0 2
    C    0.955454    1.702335    0.000000
    C   -0.134120    0.782904    0.000000
    C   -0.216305   -0.511991    0.750913
    C   -0.216305   -1.697989    0.000000
    C   -0.216305   -0.511991   -0.750913
    H   -1.034516    1.420393    0.000000

