%NProcShared=1
#p b3lyp/6-311++G(3df,2p) freq symmetry=Loose

 b3lyp opt

3 1
H  0.000068834  3.132798995  0.000000000
C  0.000045696  2.009238000  0.000000000
C  0.000019017  0.713711000  0.000000000
C -0.000008866 -0.640330000 -0.000000000
C  1.407806000 -1.302404491  0.000000000
C -1.407851000 -1.302346509 -0.000000000

