%NProcShared=4
#p b3lyp/6-311++G(3df,2p) freq symmetry=Loose

 b3lyp opt

0 4
    H    0.000000    0.000000   -3.481617
    C    0.000000    0.000000   -2.419744
    C    0.000000    0.000000   -1.189747
    C    0.000000    0.000000    0.120757
    C    0.000000    0.000000    1.407801
    C    0.000000    0.000000    2.661202

