%NProcShared=4
#p b3lyp/6-311++G(3df,2p) freq symmetry=Loose

 b3lyp opt

2 4
    H    0.000000    0.000000    3.305649
    C    0.000000    0.000000    2.212591
    C    0.000000    0.000000    0.959423
    C    0.000000    0.000000   -0.428410
    C    0.000000    0.692243   -1.647272
    C    0.000000   -0.692243   -1.647272

