%NProcShared=4
#p b3lyp/6-311++G(3df,2p) freq symmetry=Loose

 b3lyp opt

2 4
    C    0.853779    1.769233    0.000000
    C   -0.165535    0.724703    0.000000
    C   -0.168888   -0.543263    0.778804
    C   -0.168888   -1.637381    0.000000
    C   -0.168888   -0.543263   -0.778804
    H   -1.089476    1.379825    0.000000

