%NProcShared=4
#p b3lyp/6-311++G(3df,2p) freq symmetry=Loose

 b3lyp opt

1 1
    C    0.000000    0.000000    2.095805
    C    0.000000    0.000000    0.758805
    C    0.000000    0.782707   -0.433709
    C    0.000000    0.000000   -1.549382
    C    0.000000   -0.782707   -0.433709
    H    0.000000    0.000000   -2.626858

