%NProcShared=1
#p b3lyp/6-311++G(3df,2p) freq symmetry=Loose

 b3lyp opt

3 3
C -2.164401000  0.729420000  0.000240000
C  0.693737000 -0.080468000 -0.000388000
C -0.130423086 -1.230073913 -0.000445838
C -0.798389062 -0.067025937 -0.000130860
C  1.900276128  0.501704871 -0.000493482
H  2.927690254  0.976963743 -0.000586842

