%NProcShared=4
#p b3lyp/6-311++G(3df,2p) freq symmetry=Loose

 b3lyp opt

3 3
    H   -2.498957   -0.515012    0.000000
    C   -1.419326   -0.162485    0.000000
    C   -0.490488    0.863480    0.000000
    C    0.862993    0.662502    0.000000
    C    1.463315   -0.579850    0.000000
    C    0.000000   -0.697811    0.000000

