%NProcShared=1
#p b3lyp/6-311++G(3df,2p) freq symmetry=Loose

 b3lyp opt

3 1
C  2.107487236 -0.746878732 -0.000191279
C -2.107087637 -0.748231247 -0.000590715
C -0.692354914 -0.033797226  0.000249370
C  0.692296127 -0.033352873  0.000380600
C -0.000418788  1.179670091  0.000816027
H -0.000777294  2.296855838  0.000673952

