%NProcShared=4
#p b3lyp/6-311++G(3df,2p) freq symmetry=Loose

 b3lyp opt

0 2
    C   -0.033099    1.915380    0.000000
    C    0.000000    0.631761    0.000000
    C   -0.723731   -0.637108    0.000000
    C    0.086180   -1.802227    0.000000
    C    0.780101   -0.572102    0.000000
    H   -0.656706    2.785770    0.000000

