%NProcShared=4
#p b3lyp/6-311++G(3df,2p) freq symmetry=Loose

 b3lyp opt

0 2
    H    0.000000    0.000000    1.873042
    C    0.000000    0.000000    0.786472
    C    0.000000    1.134018    0.033099
    C    0.000000    2.253932   -0.582422
    C    0.000000   -1.134018    0.033099
    C    0.000000   -2.253932   -0.582422

