%NProcShared=4
#p b3lyp/6-311++G(3df,2p) freq symmetry=Loose

 b3lyp opt

0 2
    H    0.000000    0.000000   -3.482485
    C    0.000000    0.000000   -2.419380
    C    0.000000    0.000000   -1.198461
    C    0.000000    0.000000    0.121860
    C    0.000000    0.000000    1.386063
    C    0.000000    0.000000    2.690332

