%NProcShared=1
#p b3lyp/6-311++G(3df,2p) freq symmetry=Loose

 b3lyp opt

2 2
C -0.066609000  0.647920000  0.000889000
C  0.583329000 -0.782560000  0.000202000
C -0.821051460 -0.677472502 -0.001141428
C -1.479999721  0.454185257 -0.000746697
C  1.388607270  0.238323327  0.001996264
H  2.372112929  0.720389013  0.003463342

