%NProcShared=4
#p b3lyp/6-311++G(3df,2p) freq IOp(2/17=3) IOp(2/18=3)

 b3lyp opt

3 1
C -1.916341970  0.000309864 -0.000115492
C -0.601983017  0.000184357 -0.000046107
C  0.661140178 -0.773230715  0.000019014
C  1.704476942 -0.000035885  0.000075649
C  0.661287860  0.773358186  0.000022138
H -3.051850914  0.000418293 -0.000175434

