%NProcShared=4
#p b3lyp/6-311++G(3df,2p) freq symmetry=Loose

 b3lyp opt

0 4
    C    0.857362    0.791189    0.000039
    C    1.329153   -0.485666   -0.000420
    C   -1.229473   -0.289137   -0.000929
    C   -0.638650    0.942097    0.000318
    C    0.051755   -0.843926    0.000786
    H   -2.222483   -0.690799   -0.002034

