%NProcShared=4
#p b3lyp/6-311++G(3df,2p) freq symmetry=Loose

 b3lyp opt

1 3
    C    1.008801    0.004063   -0.038489
    C   -0.098446   -0.919272   -0.487556
    C   -1.125138   -0.003145    0.002551
    C   -0.105974    0.963388   -0.419075
    C   -0.027349   -0.046323    0.954353
    H    2.088639    0.007731   -0.070702

