%NProcShared=4
#p b3lyp/6-311++G(3df,2p) freq symmetry=Loose

 b3lyp opt

2 4
    H    1.492806    1.357254    0.000000
    C    0.402639    1.040081    0.000000
    C    0.036350   -0.354335    0.000000
    C   -0.229264   -1.532529    0.683579
    C   -0.229264   -1.532529   -0.683579
    C   -0.229264    2.153103    0.000000

