%NProcShared=4
#p b3lyp/6-311++G(3df,2p) freq symmetry=Loose

 b3lyp opt

1 1
    H    0.748019   -1.918243   -0.575622
    C    0.545345   -0.956678   -0.117937
    C   -0.529024   -0.034765    0.023400
    C    0.557469    1.139344   -0.313869
    C    1.164691    0.141165    0.417161
    C   -1.863151    0.030640    0.087182

