%NProcShared=4
#p b3lyp/6-311++G(3df,2p) freq symmetry=Loose

 b3lyp opt

3 3
    H    0.000000    0.000000   -3.603902
    C    0.000000    0.000000   -2.476506
    C    0.000000    0.000000   -1.182346
    C    0.000000    0.000000    0.115594
    C    0.000000    0.000000    1.426401
    C    0.000000    0.000000    2.717507

