%NProcShared=4
#p b3lyp/6-311++G(3df,2p) freq symmetry=Loose

 b3lyp opt

3 1
    C    1.028542    1.829610   -0.000000
    C   -0.194367    0.753924    0.000001
    C   -0.194581   -0.590413    0.770745
    C   -0.250685   -1.626376    0.000000
    C   -0.194582   -0.590414   -0.770746
    H   -1.167559    1.337064   -0.000000

