%NProcShared=4
#p b3lyp/6-311++G(3df,2p) freq symmetry=Loose

 b3lyp opt

0 4
    H    0.000000    0.000000    1.760450
    C    0.000000    0.000000    0.676409
    C    0.000000    1.216352    0.017524
    C    0.000000    2.319171   -0.502432
    C    0.000000   -1.216352    0.017524
    C    0.000000   -2.319171   -0.502432

