%NProcShared=4
#p b3lyp/6-311++G(3df,2p) freq symmetry=Loose

 b3lyp opt

3 1
    H    2.529449    0.159883    0.000000
    C    1.441860   -0.149776    0.000000
    C    0.403346   -0.931897    0.000000
    C   -0.964530   -0.516435    0.000000
    C   -1.302251    0.733237    0.000000
    C    0.000000    0.838225    0.000000

