%NProcShared=4
#p b3lyp/6-311++G(3df,2p) freq symmetry=Loose

 b3lyp opt

0 1
S  1.562305676 -0.395611263 -0.973180228
S -0.731572329  1.142461571 -1.103553179
S  1.617994411 -0.146796968  0.902121572
S -0.668399631  1.391840485  0.771215703
S -0.858657053 -1.339321189  1.139235006
S -0.921672074 -1.586436636 -0.735838875

