%NProcShared=4
#p b3lyp/6-311++G(3df,2p) freq symmetry=Loose

 b3lyp opt

0 1
S -0.321058974 -0.600682835 -0.310129784
S  1.926237811  0.116490506  1.861457124
S -0.249217074 -0.275783978  1.875265690
S -1.269952346  0.785706027 -1.229259076
S  1.865937714 -0.278638051 -0.312688967
S  2.347578870  1.940158330  2.266400013

