%NProcShared=4
#p b3lyp/6-311++G(3df,2p) freq symmetry=Loose

 b3lyp opt

0 1
    S    0.942219   -2.034707    0.129044
    S    2.215559   -0.135781    0.349997
    S   -0.710418   -1.296721   -0.647599
    S    0.983935    1.230918   -0.355909
    S   -1.011343    0.600900    0.656860
    S   -2.419952    1.635390   -0.132394

