%NProcShared=4
#p b3lyp/6-311++G(3df,2p) freq symmetry=Loose

 b3lyp opt

0 3
S  0.848765170 -0.806551620 -0.583371415
S  0.736850988  0.418708502  3.443567062
S -0.936306153  1.200048240  2.934752854
S -1.860709951 -0.152595286  1.307317724
S -0.557658947 -1.582728830  1.075613857
S  0.214277893  0.923438994 -1.106245083

