%NProcShared=4
#p b3lyp/6-311++G(3df,2p) freq symmetry=Loose

 b3lyp opt

0 1
S -1.318964730  0.730159113  0.611180770
S  3.437445268 -0.730186897  1.183273765
S  0.729811000  0.531713000  0.105751000
S  1.388928630 -0.531554423  1.688270386
S -1.708685880 -0.145807277  2.302787113
S  3.827713711  0.145614485 -0.508272035

