%NProcShared=4
#p b3lyp/6-311+G(3df) freq symmetry=Loose

 b3lyp opt

1 2
    C    1.410864    1.041955    0.458133
    C    0.416527    0.094350    0.044435
    C   -0.854006   -0.193304   -0.091667
    C    1.780494   -0.320370   -0.116800
    C   -2.074949   -0.469186   -0.222103
    C   -3.348518   -0.756968   -0.357937
    C    2.669587    0.603522    0.285939

