%NProcShared=4
#p b3lyp/6-311+G(3df) freq symmetry=Loose

 b3lyp opt

1 4
    C   -0.000834   -0.057060    3.869839
    C    0.000512    0.175516    2.556078
    C    0.000485    0.127614    1.283194
    C    0.000258    0.106710   -0.000005
    C    0.000386    0.128349   -1.283177
    C    0.000330    0.175651   -2.556062
    C   -0.001137   -0.056778   -3.869868

