%NProcShared=4
#p b3lyp/6-311+G(3df) freq symmetry=Loose

 b3lyp opt

1 2
    C   -0.117195   -1.478757    0.635197
    C    0.484660    0.878514   -0.863980
    C   -0.746804   -0.408075    1.013318
    C   -0.994457    0.856374    0.877751
    C    1.069823   -0.236475   -1.174981
    C    0.645898   -1.160080   -0.366833
    C   -0.341926    1.548498   -0.120471

