%NProcShared=4
#p b3lyp/6-311++G(3df,2p) freq

 b3lyp opt

1 2
    S   -1.308511   -0.475187    0.173260
    S    0.496654   -0.966031    1.105484
    C    1.747208   -0.664266    0.019853
    C    2.702799   -0.357512   -0.645102
    H   -1.525812    0.526186    1.051008
    H    0.421496   -2.312017    0.956887

