%NProcShared=4
#p ccsd(t,maxcyc=200)/6-311++G(3df,2p) scf(qc)

 ccsd(t) iener

0 2
    C    0.000000   -0.009318    1.967823
    C    0.000000   -0.016791    0.622795
    C    0.000000    0.000257   -0.611573
    C    0.000000    0.037554   -1.925044
    C    0.000000    0.277342   -3.184837
    N    0.000000    0.010956    3.130836

