%NProcShared=4
#p ccsd(t)/6-311+G(3df) scf(MaxCyc=300) guess(Huckel)

 ccsd(t) iener

2 3
    C    0.092677   -0.152360   -1.199019
    C    0.283353    0.861426    0.539355
    C   -0.375131   -0.706297    0.689276
    C   -0.919205    0.367083   -0.194061
    C    0.918305   -0.369852    0.164449

