%NProcShared=5
#p ccsd(t,maxcyc=200)/6-311+G(3df) scf(MaxCyc=300) guess(Huckel)

 ccsd(t) iener

2 3
    C   -0.129856   -0.000910   -0.069265
    C    0.118740    0.000678    1.274283
    C    0.456825    0.000217   -1.418767
    C    1.771191    0.004438   -0.877378
    C    1.239651    0.003610    0.492927

