%NProcShared=4
#p ccsd(t)/6-311+G(3df) scf(MaxCyc=300) guess(Huckel)

 ccsd(t) iener

2 3
    C    1.238995   -0.556536    0.449945
    C   -1.154004   -0.047963    0.843929
    C    0.949966    0.039254   -0.695085
    C   -1.019982    0.458485   -0.370370
    C   -0.084892    0.604409   -1.294648
    C    0.069916   -0.497649    1.066230

