%NProcShared=4
#p ccsd(t)/6-311+G(3df) scf(MaxCyc=300) guess(Huckel)

 ccsd(t) iener

2 1
    C    0.918013    0.451924   -0.034046
    C   -0.391134    0.794849   -0.513653
    C   -0.918139   -0.451592    0.034778
    C    0.390947   -0.794449    0.514202
    C   -0.691497   -1.635662    0.718593
    C    0.691811    1.634931   -0.719874

