%NProcShared=4
#p ccsd(t)/6-311+G(3df) scf(MaxCyc=300) guess(Huckel)

 ccsd(t) iener

2 3
    C    1.218592    0.187385   -0.407864
    C    0.586388    0.844002    0.659620
    C   -0.479452   -1.417022    0.248084
    C    0.872742   -1.081378    0.020715
    C   -0.040105    0.772560   -0.943886
    C   -0.821916    0.989407    0.202476
    C   -1.336249   -0.294954    0.220855

