%NProcShared=4
#p ccsd(t)/6-311+G(3df) scf(MaxCyc=300)

 ccsd(t) iener

2 1
    C    1.068480   -0.455007   -0.271212
    C    0.391656    1.150636    0.490665
    C   -0.528151   -0.003360   -1.199522
    C    0.052361    1.111173   -0.787054
    C   -0.399764   -0.918959    0.844998
    C   -0.770910   -1.042720   -0.418439
    C    0.186328    0.158237    1.340564

