%NProcShared=4
#p ccsd(t)/6-311+G(3df) scf(MaxCyc=300) guess(Huckel)

 ccsd(t) iener

2 1
    C   -1.637716   -0.551945   -0.047012
    C    0.922740   -0.717450   -0.473937
    C    0.520132    0.120424    1.238825
    C    0.269352    0.889084   -0.026721
    C   -1.164836    0.607589   -0.257655
    C    1.401118    0.444553   -0.805368
    C   -0.310789   -0.792254    0.371867

