%NProcShared=4
#p ccsd(t)/6-311+G(3df) scf(MaxCyc=300)

 ccsd(t) iener

2 1
    C   -1.192439   -0.701282    0.372519
    C    1.025139    0.647352   -0.374708
    C    0.379763    1.278696   -1.432876
    C    0.098200   -0.232065    0.331610
    C   -2.458344   -0.651441   -0.222985
    C    2.367099    0.825290   -0.033577
    C   -0.219418   -1.166551    1.360017

