%NProcShared=4
#p ccsd(t)/6-311+G(3df) scf(MaxCyc=300) guess(Huckel)

 ccsd(t) iener

2 1
    C    0.052887   -1.421812   -0.434961
    C    1.432195    0.330623    0.224677
    C   -0.690268    1.273668    0.336125
    C    0.595676    1.287971    0.449241
    C   -1.456817    0.302061   -0.031366
    C   -1.125415   -0.897790   -0.373466
    C    1.191743   -0.874722   -0.170250

