%NProcShared=4
#p ccsd(t)/6-311+G(3df) scf(MaxCyc=300)

 ccsd(t) iener

2 1
    C   -0.657623   -0.903351    1.558060
    C    0.342647   -0.464015   -0.703696
    C   -0.125720   -1.179910    0.415128
    C   -0.517453    0.297338    1.105930
    C   -0.021000    0.906756   -0.062944
    C    0.903438   -0.890004   -1.888302
    C    0.075711    2.233187   -0.424175

