%NProcShared=5
#p ccsd(t)/6-311+G(3df) scf(MaxCyc=300)

 ccsd(t) iener

1 4
    C    0.000000    0.000000    3.904161
    C    0.000000    0.000000    2.556704
    C    0.000000    0.000000    1.285356
    C    0.000000    0.000000    0.000000
    C    0.000000    0.000000   -1.285356
    C    0.000000    0.000000   -2.556704
    C    0.000000    0.000000   -3.904160

