%NProcShared=4
#p ccsd(t,maxcyc=200)/6-311++G(3df,2p)

 ccsd(t) iener

1 2
    C   -1.234335    0.167031    0.341283
    C    2.321178   -0.435897   -0.226285
    O   -1.322135   -0.829143    0.979712
    C    1.235806    0.223532    0.075396
    C    0.133898    0.878275    0.305304
    H   -2.067620    0.655151   -0.183060
    H    3.113640   -0.567921    0.507672
    H    2.470108   -0.859591   -1.216974
    H    0.092875    1.942972    0.528251

