%NProcShared=4
#p ccsd(t,maxcyc=200)/6-311++G(3df,2p)

 ccsd(t) iener

1 2
    C   -0.867481    0.681224    0.000027
    C    1.205740   -0.155831   -0.000514
    O    0.367098    1.050203   -0.000505
    C    0.186054   -1.203815   -0.000155
    C   -1.069417   -0.724731    0.000099
    H   -1.607962    1.473676    0.000040
    H    1.833354   -0.121488   -0.894105
    H    1.833798   -0.121244    0.892755
    H   -2.018871   -1.235253    0.000332

