%NProcShared=4
#p ccsd(t,maxcyc=200)/6-311++G(3df,2p)

 ccsd(t) iener

0 1
    O    0.000000    0.000000    2.301466
    C   -0.000000   -0.753215   -1.423403
    C    0.000000    0.753215   -1.423403
    C   -0.000000   -0.000000   -0.148116
    C   -0.000000   -0.000000    1.133216
    H    0.913353   -1.263742   -1.704936
    H   -0.913353   -1.263742   -1.704936
    H   -0.913353    1.263742   -1.704936
    H    0.913353    1.263742   -1.704936

