%NProcShared=4
#p ccsd(t,maxcyc=200)/6-311++G(3df,2p)

 ccsd(t) iener

1 2
O -2.553349186 -1.562575393  0.023334237
C  1.026936605 -0.247435480  0.056261085
C  0.246605059  1.026073413 -0.067644326
C -0.452310099 -0.277041833  0.004217570
C -1.585119549 -0.970158193  0.014524633
H  1.465040753 -0.516078227  1.012750626
H  1.532089742 -0.652843876 -0.815197895
H  0.194154132  1.530680431 -1.027642800
H  0.127105142  1.667446079  0.800305722

