%NProcShared=4
#p ccsd(t,maxcyc=200)/6-311++G(3df,2p)

 ccsd(t) iener

0 1
    O    1.849063    0.643696    0.002058
    C   -0.616259   -0.032506   -0.000632
    C    0.813537    0.029623    0.000457
    C    0.073974   -1.185914   -0.001798
    C   -1.951972    0.597043   -0.000665
    H   -0.017117   -2.263891   -0.003403
    H   -2.058702    1.237898    0.876135
    H   -2.751044   -0.143649   -0.002281
    H   -2.057478    1.240404   -0.875776

