%NProcShared=4
#p ccsd(t,maxcyc=200)/6-311++G(3df,2p)

 ccsd(t) iener

0 1
    C   -0.638800    0.270084   -0.272457
    C   -1.891994    0.197895   -0.119788
    C    0.681215    0.382878   -0.452131
    H    1.136674   -1.258465    0.350371
    H    1.150345    1.235332   -0.933720
    O    1.581187   -0.508948   -0.075928

