%NProcShared=4
#p ccsd(t,maxcyc=200)/6-311++G(3df,2p)

 ccsd(t) iener

0 1
    C    0.906972   -0.780038    0.212773
    C   -2.797329    0.339377   -0.081681
    C   -0.345698   -0.403503    0.113653
    C   -1.574706   -0.046167    0.018259
    H    1.749070    0.931468   -0.044614
    H    1.149924   -1.819667    0.391469
    O    2.003253    0.015039    0.114300

