%NProcShared=4
#p ccsd(t,maxcyc=200)/6-311++G(3df,2p)

 ccsd(t) iener

1 2
    C   -0.911149    0.699584   -0.216081
    C    0.912129   -0.158256    0.363881
    O    0.377017    1.037903    0.165245
    C    0.186844   -1.166741    0.174804
    C   -1.063375   -0.746656   -0.216656
    H   -1.586906    1.515393   -0.445830
    H   -1.967719   -1.278042   -0.474249

