%NProcShared=4
#p ccsd(t,maxcyc=200)/6-311++G(3df,2p)

 ccsd(t) iener

1 1
    C    0.076701    0.067061   -0.529155
    C    0.609564   -1.230675   -0.265104
    H   -0.891554    0.159204   -1.006368
    H    0.681562    0.943076   -0.327976
    H    1.170823   -2.125722   -0.532461
    O    0.006418   -0.903646    0.754741

