%NProcShared=4
#p ccsd(t,maxcyc=200)/6-311++G(3df,2p)

 ccsd(t) iener

1 1
    C    0.799048   -0.720725   -0.057424
    C   -0.503608   -0.246045    0.269912
    H    1.529134   -0.177324    0.553265
    H    0.840808   -1.794368    0.158923
    H    0.976950   -0.536597   -1.123122
    O   -1.520471    0.124481    0.525438

