%NProcShared=4
#p ccsd(t,maxcyc=200)/6-311++G(3df,2p)

 ccsd(t) iener

1 1
    C    0.228592    1.028533   -0.027147
    C   -0.790028   -0.884190    0.083991
    O   -1.025286    0.422343   -0.009426
    C    0.554403   -0.958749   -0.172046
    C    1.303243    0.150207    0.075119
    H    0.242284    2.044448   -0.399516
    H   -1.577493   -1.584972    0.308265
    H    2.336409    0.398434   -0.108869

