%NProcShared=4
#p ccsd(t,maxcyc=200)/6-311++G(3df,2p)

 ccsd(t) iener

0 1
C  0.564930687  0.672695386 -0.132548817
C -0.761960604  0.445838934  0.502614890
H -1.385170025  1.324211131  0.316157822
H -1.290922170 -0.463936928  0.166627654
H -0.621208293  0.411074639  1.585977326
H  0.201741644 -0.962756539 -1.090108770
O  0.880988615 -0.252582197 -0.988072681

