%NProcShared=4
#p ccsd(t,maxcyc=200)/6-311++G(3df,2p)

 ccsd(t) iener

0 1
    C   -0.176654    0.076376    0.259931
    C   -1.108724   -0.397307   -0.553894
    H   -1.939336   -0.953871   -0.149776
    H    1.458549    1.044166    0.540626
    H   -1.060659   -0.240729   -1.622117
    H   -0.216479   -0.075816    1.333063
    O    0.897434    0.788061   -0.194143

