%NProcShared=4
#p ccsd(t,maxcyc=200)/6-311++G(3df,2p)

 ccsd(t) iener

1 2
    C   -0.712347    1.793145   -0.538821
    C    0.413216    0.036548    0.200856
    C   -0.679851    0.346794   -0.738391
    H    1.819896   -0.188158   -1.083675
    H   -0.601639    0.000896   -1.776841
    H    0.247763    0.064655    1.273029
    H   -1.663666    0.040890   -0.327039
    O    1.635323   -0.121897   -0.128717

