%NProcShared=4
#p ccsd(t,maxcyc=200)/6-311++G(3df,2p)

 ccsd(t) iener

0 1
    C    2.156512   -0.464214    0.000000
    C   -1.370627    0.171739    0.000000
    O   -1.463430   -1.021642   -0.000000
    C   -0.072468    0.966507    0.000000
    C    1.149182    0.183670    0.000000
    H   -0.111248    1.633551   -0.869851
    H   -2.272826    0.818127   -0.000000
    H   -0.111248    1.633551    0.869851
    H    3.045796   -1.044314   -0.000000

