%NProcShared=4
#p ccsd(t,maxcyc=200)/6-311++G(3df,2p)

 ccsd(t) iener

1 2
    C    1.158067    0.301098    0.152537
    C   -1.854008   -0.739266   -0.425125
    O    2.055493   -0.275597    0.478571
    C   -1.240497    0.133617    0.315602
    C   -0.055854    0.959845   -0.231987
    H   -0.021459    1.980175    0.166921
    H   -2.689271   -1.418911   -0.436688
    H   -1.515317    0.348643    1.346782
    H   -0.051635    1.014047   -1.326610

