%NProcShared=4
#p ccsd(t,maxcyc=200)/6-311++G(3df,2p)

 ccsd(t) iener

1 2
O  1.853896000 -1.895180000  0.466846000
C  0.218541000  1.407121000 -0.097835000
C  0.828460170 -1.470893590  0.267185533
C -0.704357117  0.383091566 -0.145669801
C -0.427114891 -0.979226488  0.025326503
H -0.096083076  2.430980597 -0.242914562
H  1.273393263  1.237861592  0.082492089
H -1.744172070  0.623601300 -0.330335255
H -1.202842054 -1.737509350 -0.024489096

