%NProcShared=4
#p ccsd(t,maxcyc=200)/6-311++G(3df,2p)

 ccsd(t) iener

1 2
    O    2.720188    0.863466    0.000000
    C    0.747427   -0.449878   -0.000000
    C    1.511854    0.792293   -0.000000
    C   -0.566424   -0.401273   -0.000000
    C   -1.859579   -0.393678    0.000000
    H    1.320156   -1.370122   -0.000000
    H    0.965668    1.755036    0.000000
    H   -2.419695   -0.397921    0.931214
    H   -2.419695   -0.397922   -0.931214

