%NProcShared=4
#p ccsd(t,maxcyc=200)/6-311++G(3df,2p)

 ccsd(t) iener

1 2
C  0.334337000 -1.252169000  0.656802000
C -0.003775000  0.625877000 -0.853349000
O -0.459426092 -0.855662668  1.585067693
C -0.532712614  1.689336097 -1.125867860
C  0.591585198 -0.570548067 -0.547255045
H  0.818156963 -2.197794367  0.875836520
H -0.901633769 -0.005278104  1.400379922
H -0.986997844  2.622828961 -1.382363836
H  1.287741107 -1.023506156 -1.244074820

