%NProcShared=4
#p ccsd(t,maxcyc=200)/6-311++G(3df,2p)

 ccsd(t) iener

0 1
    O    2.729096    0.857591   -0.000000
    C    0.753204   -0.445656   -0.000000
    C    1.522878    0.812158   -0.000000
    C   -0.556495   -0.439384    0.000000
    C   -1.851663   -0.393015   -0.000000
    H    1.318080   -1.371301    0.000000
    H    0.911372    1.734320    0.000000
    H   -2.413286   -0.377357    0.926377
    H   -2.413285   -0.377357   -0.926377

