%NProcShared=4
#p ccsd(t,maxcyc=200)/6-311++G(3df,2p)

 ccsd(t) iener

0 2
    C   -0.083905    0.230066   -0.056493
    C    0.891427   -0.141525    0.901826
    C   -0.852594    1.109264   -0.739262
    C    1.346753   -1.326069    1.228487
    H    1.379089    0.639644    1.497100
    O   -0.835670   -0.454780   -0.913880

