%NProcShared=4
#p ccsd(t,maxcyc=200)/6-311++G(3df,2p)

 ccsd(t) iener

1 1
    C   -1.769713   -0.514735   -0.050121
    C    0.864881   -0.015855    0.802276
    C    1.849126    0.462318    0.029077
    C   -0.366307   -0.193400    0.196608
    H    1.022202   -0.255262    1.858238
    O   -0.891035   -0.019966   -0.990970

