%NProcShared=4
#p b3lyp/6-311++G(3df,2p) freq symmetry=Loose

 b3lyp opt

3 3
    C    0.000174    0.469982    0.000000
    H   -0.079921    1.631640   -0.000000
    C    1.282769   -0.064817    0.000001
    H    2.370296   -0.486262   -0.000000
    C   -1.373116   -0.357138   -0.000000
    H   -1.753671   -1.443756   -0.000000

