%NProcShared=4
#p b3lyp/6-311++G(3df,2p) freq symmetry=Loose

 b3lyp opt

1 2
    C    0.000000    0.707288    0.000000
    H    0.932218    1.262589    0.000000
    H   -0.931983    1.263382    0.000000
    C    0.000000   -0.707288    0.000000
    H   -0.932218   -1.262589    0.000000
    H    0.931983   -1.263382    0.000000

