%NProcShared=4
#p b3lyp/6-311++G(3df,2p) freq symmetry=Loose

 b3lyp opt

3 4
    C    0.000000    0.739359    0.000000
    H    1.182251    1.354860    0.000000
    H   -1.183687    1.352933    0.000000
    C    0.000000   -0.739359    0.000000
    H   -1.182251   -1.354860    0.000000
    H    1.183687   -1.352933    0.000000

