%NProcShared=4
#p b3lyp/6-311++G(3df,2p) freq symmetry=Loose

 b3lyp opt

1 2
    C   -0.161291   -1.996589    0.000000
    H   -1.215704   -2.242547    0.000000
    H    0.559506   -2.808072    0.000000
    C    0.278334   -0.732801    0.000000
    C    0.000000    0.783864    0.000000
    C    1.252904    0.229928    0.000000
    C   -0.859530    1.809265    0.000000
    H   -0.473699    2.823583    0.000000
    H   -1.932612    1.665026    0.000000

