%NProcShared=4
#p b3lyp/6-311++G(3df,2p) freq symmetry=Loose

 b3lyp opt

0 2
    N   -2.254424    1.975222    0.800044
    C    0.479204   -0.390108   -0.173450
    C   -0.423479    0.390367    0.147969
    C    1.437230   -1.218853   -0.514482
    C    2.376044   -2.030511   -0.849823
    C   -1.405090    1.239749    0.497561

