%NProcShared=4
#p b3lyp/6-311++G(3df,2p) freq symmetry=Loose

 b3lyp opt

0 4
    N    0.000000    0.000000    1.911830
    C    0.000000    0.000000    0.681863
    C    0.000000    0.000000   -0.623488
    C    0.000000   -0.000000   -1.882632
    C   -0.000000   -0.000000   -3.234611
    C   -0.000000   -0.000000    3.147038

