%NProcShared=4
#p b3lyp/6-311++G(3df,2p) freq symmetry=Loose

 b3lyp opt

0 2
    C   -1.354433    0.306072   -0.398124
    C    1.630830    0.257263    2.071228
    N   -1.349032   -0.584851   -1.420133
    C    0.064261    0.143562    0.016459
    C   -0.014109   -0.350012   -1.383902
    C    0.851341    0.189050    1.056372

