%NProcShared=4
#p b3lyp/6-311++G(3df,2p) freq symmetry=Loose

 b3lyp opt

0 2
    C   -1.058085   -0.035569   -0.875046
    C    0.926795   -0.883249    0.653357
    N    1.387749    0.082143    1.486431
    C    0.048042   -0.023275   -0.182703
    C    1.028085    0.891723    0.459872
    C   -2.135905   -0.048856   -1.568399

