%NProcShared=4
#p b3lyp/6-311++G(3df,2p) freq symmetry=Loose

 b3lyp opt

1 3
    N   -0.262898    0.264686   -0.081065
    C   -1.577187   -0.036886   -0.153546
    C   -0.073259   -2.311945    0.354125
    C   -0.529105   -1.066366    0.109939
    C    1.592356    1.967836   -0.185747
    C    0.710437    1.141091   -0.133268

