%NProcShared=4
#p b3lyp/6-311++G(3df,2p) freq symmetry=Loose

 b3lyp opt

1 3
    N   -0.275248    0.009638   -0.311138
    C   -1.977386    0.065262   -2.231045
    C    1.672088    0.485172    1.329886
    C    1.103101   -0.577756    1.802243
    C   -1.079218    0.035431   -1.217479
    C    0.556695   -0.017777    0.627506

