%NProcShared=4
#p b3lyp/6-311++G(3df,2p) freq symmetry=Loose

 b3lyp opt

1 3
    N   -0.262961    0.264460   -0.081541
    C   -1.577010   -0.036885   -0.155487
    C   -0.073276   -2.311823    0.355774
    C   -0.528925   -1.066474    0.110359
    C    1.592155    1.967966   -0.185350
    C    0.710356    1.141180   -0.133276

