%NProcShared=4
#p b3lyp/6-311++G(3df,2p) freq symmetry=Loose

 b3lyp opt

0 2
    N    0.000000    0.000000    1.925418
    C   -0.000000    0.000000    0.642695
    C   -0.000000    0.000000   -0.587985
    C    0.000000   -0.000000   -1.904335
    C    0.000000   -0.000000   -3.188440
    C    0.000000   -0.000000    3.112647

