%NProcShared=4
#p b3lyp/6-311++G(3df,2p) freq symmetry=Loose

 b3lyp opt

0 4
    N   -0.286727    0.008989   -0.323153
    C   -1.972737    0.065781   -2.226352
    C    1.676767    0.515014    1.304336
    C    1.077219   -0.606138    1.803194
    C   -1.081889    0.035589   -1.220582
    C    0.587391   -0.019256    0.662538

