%NProcShared=4
#p b3lyp/6-311++G(3df,2p) freq symmetry=Loose

 b3lyp opt

1 3
    C   -0.260127   -0.873196    0.727011
    C   -0.162653    1.076509    0.443481
    N   -0.470527    0.230171    1.379670
    C    0.135493   -1.310101   -0.487664
    C    0.256409    1.109513   -0.839529
    C    0.348571   -0.175968   -1.131619

