%NProcShared=4
#p b3lyp/6-311++G(3df,2p) freq symmetry=Loose

 b3lyp opt

1 3
    N   -2.259722    1.980060    0.802533
    C    0.487150   -0.397956   -0.177074
    C   -0.434761    0.400266    0.151741
    C    1.421269   -1.206614   -0.510189
    C    2.396265   -2.046307   -0.855379
    C   -1.400715    1.236416    0.496187

