%NProcShared=4
#p b3lyp/6-311++G(3df,2p) freq symmetry=Loose

 b3lyp opt

0 4
    N   -0.286048    0.010327   -0.323786
    C   -1.973473    0.064588   -2.225969
    C    1.677001    0.514499    1.305106
    C    1.076619   -0.606596    1.803027
    C   -1.081703    0.035972   -1.220793
    C    0.587635   -0.018818    0.662387

