%NProcShared=4
#p b3lyp/6-311++G(3df,2p) freq symmetry=Loose

 b3lyp opt

1 3
    C   -1.047339   -0.035491   -0.866523
    C    0.947950   -0.915712    0.613576
    N    1.219412    0.092894    1.496200
    C    0.133076   -0.032005   -0.218041
    C    1.052403    0.912331    0.414286
    C   -2.108823   -0.039100   -1.465985

