%NProcShared=2
#p b3lyp/6-311++G(3df,2p) freq IOp(2/17=3) IOp(2/18=3)

 b3lyp opt

-1 2
    C    0.917673    1.510837   -0.409020
    C   -0.498442   -0.557627    0.308023
    C    0.258794    0.505966   -0.086805
    H    0.574350   -1.636771   -0.937783
    H    1.412731    2.425837   -0.611563
    O   -0.161348   -1.782474   -0.318884

