%NProcShared=2
#p b3lyp/6-311++G(3df,2p) freq IOp(2/17=3) IOp(2/18=3)

 b3lyp opt

-1 2
    C    1.349013    1.079622    0.240927
    C   -0.785585   -0.224066   -0.585630
    C   -1.861959   -0.690837   -1.015332
    C    0.357773    0.211297   -0.124977
    H   -2.755855   -1.135007   -1.368207
    H    1.054882    2.144311    0.040728
    O    2.480809    0.874867    0.741459

