%NProcShared=4
#p b3lyp/6-311++G(3df,2p) freq IOp(2/17=3) IOp(2/18=3)

 b3lyp opt

-1 1
    C   -0.198670    1.890557    0.000000
    C    0.217312    0.714964    0.000000
    C    0.585653   -0.583627   -0.000000
    H   -0.527492    2.897186   -0.000000
    H   -1.254283   -1.188658    0.000000
    H    1.588766   -0.972742   -0.000000
    O   -0.409610   -1.645271   -0.000000

