%NProcShared=4
#p b3lyp/6-311++G(3df,2p) freq IOp(2/17=3) IOp(2/18=3)

 b3lyp opt

-1 3
    C    1.251053   -0.357444    0.067045
    C    0.583322    0.251195   -1.121590
    C   -0.095078   -0.246896   -0.050538
    H    2.129432   -0.653658    0.594684
    H   -1.217243   -0.887319    1.343734
    H    0.622958    0.717909   -2.081981
    O   -1.284626   -0.449894    0.457345

