%NProcShared=2
#p b3lyp/6-311++G(3df,2p) freq IOp(2/17=3) IOp(2/18=3)

 b3lyp opt

-1 4
    C    2.315965   -0.505416   -0.446791
    C   -1.089437    0.332379    0.450466
    O   -1.195057    1.398290   -0.279011
    C   -0.291991   -0.857982   -0.138129
    C    1.129254   -0.620922   -0.290457
    H    3.367430   -0.423047   -0.581252
    H   -2.061285    0.003289    0.862358
    H   -0.464641   -1.695750    0.549871
    H   -0.734279   -1.142953   -1.103373

