%NProcShared=2
#p b3lyp/6-311++G(3df,2p) freq IOp(2/17=3) IOp(2/18=3)

 b3lyp opt

-1 4
    C   -0.246486   -0.555783    1.014709
    C    0.698596    1.696321   -1.642543
    O    0.716577   -1.521354    1.153766
    C    0.061802    0.863071   -1.015412
    C   -0.644861   -0.083949   -0.317516
    H   -0.301061    0.090030    1.880069
    H    0.827573   -1.997828    0.314616
    H    1.240055    2.408986   -2.217992
    H   -1.523918   -0.515784   -0.795281

