%NProcShared=2
#p b3lyp/6-311++G(3df,2p) freq IOp(2/17=3) IOp(2/18=3)

 b3lyp opt

-1 4
    C   -0.428075    1.090223   -0.001005
    C   -0.325401   -1.479764   -0.731569
    O    0.287437    2.138970    0.001269
    C   -0.325460   -1.479311    0.731466
    C    0.251757   -0.337921   -0.000397
    H   -1.516916    1.083048    0.000305
    H    0.173417   -2.127499    1.454615
    H    0.173524   -2.128377   -1.454291
    H    1.325324   -0.160305   -0.000392

