%NProcShared=4
#p b3lyp/6-311++G(3df,2p) freq IOp(2/17=3) IOp(2/18=3)

 b3lyp opt

-1 2
    C   -0.968066    0.611833    0.000000
    C    0.326093   -1.311962   -0.000000
    O   -1.034632   -0.729927   -0.000000
    C    1.231178   -0.058213    0.000000
    C    0.274934    1.114132   -0.000000
    H   -1.915450    1.141677    0.000000
    H    1.915588   -0.048271    0.873847
    H    1.915588   -0.048271   -0.873847
    H    0.516474    2.168978   -0.000000

