%NProcShared=4
#p b3lyp/6-311++G(3df,2p) freq IOp(2/17=3) IOp(2/18=3)

 b3lyp opt

-1 2
    C    3.089946    3.310696    0.913991
    C    3.137849    1.807502    0.613570
    O    4.188113    1.321935    0.080503
    C    2.002425    1.082019    0.951700
    C    1.041411    0.444714    1.440940
    H    4.035323    3.756232    0.600717
    H    2.944437    3.505052    1.983217
    H    2.272530    3.812608    0.385266
    H    0.074278    0.084932    1.119625

