%NProcShared=2
#p b3lyp/6-311++G(3df,2p) freq IOp(2/17=3) IOp(2/18=3)

 b3lyp opt

-1 4
    C    0.736818   -0.483844   -0.506917
    H    0.932012   -0.875167   -1.527005
    H    1.085486    0.565966   -0.594452
    H   -1.660608   -1.525767    1.473236
    H    1.353781   -1.022929    0.222868
    O   -0.601297   -0.497432   -0.268784

