%NProcShared=4
#p ccsd(t,maxcyc=200)/6-311++G(3df,2p)

 ccsd(t) iener

-1 4
    C   -0.819171   -0.351185   -0.484653
    C    0.778323    0.939997    0.386447
    O   -0.585698    0.959581    0.081556
    C    1.182374   -0.462662    0.556691
    C    0.237103   -1.233225   -0.038031
    H    1.380445    1.630491   -0.231604
    H    0.183299   -2.304442   -0.166015

