%NProcShared=4
#p ccsd(t,maxcyc=200)/6-311++G(3df,2p)

 ccsd(t) iener

-1 4
    C    1.024955   -0.591764   -0.054242
    C   -1.686702   -0.477177   -0.026478
    C   -1.272129    0.549093    0.906883
    C   -0.341176   -0.374103    0.172562
    H   -1.198837    1.641280    0.811953
    H    1.226203   -1.396414   -0.791063
    O    1.997085    0.001948    0.500020

