%NProcShared=4
#p ccsd(t,maxcyc=200)/6-311++G(3df,2p)

 ccsd(t) iener

-1 3
    C    0.064754   -0.050783   -0.151458
    C    0.872807   -1.082041   -0.306387
    H    0.737159   -1.793351   -1.119123
    H    1.715246   -1.232854    0.359575
    H   -1.206777    1.321241   -0.629344
    O   -1.055253    0.336121   -0.702979

