%NProcShared=4
#p ccsd(t,maxcyc=200)/6-311++G(3df,2p)

 ccsd(t) iener

-1 1
C  0.157527000  0.054743000  0.291992000
C  0.862188000 -1.070084000  0.042586000
H  1.664784468 -1.367949405  0.707630366
H  0.666164413 -1.723240424 -0.820515865
H -1.278314144  1.078514922 -0.423940382
O -0.857246546  0.269470369 -0.705121382

