%NProcShared=4
#p ccsd(t,maxcyc=200)/6-311++G(3df,2p)

 ccsd(t) iener

-1 3
    C    1.190581   -0.953329    0.178305
    C    0.120881   -0.786359   -0.575478
    H    1.263053   -0.506597    1.168316
    H    2.042395   -1.519286   -0.182371
    H   -1.492973    0.033269   -1.246974
    O   -1.063701   -0.264071   -0.394893

