%NProcShared=4
#p ccsd(t,maxcyc=200)/6-311++G(3df,2p)

 ccsd(t) iener

-1 1
    C    0.800445    0.332863    0.761928
    C   -0.207579    0.483493   -0.082354
    H   -0.315038    1.130612   -0.961042
    H    1.651578    0.980123    0.506919
    H   -1.242861   -0.784070    0.828319
    O   -1.423004   -0.247284    0.040874

