%NProcShared=4
#p ccsd(t,maxcyc=200)/6-311++G(3df,2p)

 ccsd(t) iener

-1 1
    C    0.984295   -0.353082    0.310352
    C    0.200830    0.638216   -0.522998
    C   -0.468790   -0.464215   -0.219080
    H    1.779761   -0.969127   -0.137794
    H    1.165492   -0.176574    1.382326
    H    0.276115    1.605382   -0.997483
    O   -1.450448   -1.233929   -0.214791

