%NProcShared=4
#p ccsd(t,maxcyc=200)/6-311++G(3df,2p)

 ccsd(t) iener

-1 2
    C   -0.254189    0.997561   -0.179870
    C    0.639049   -0.175511   -0.063418
    C   -0.500366   -0.459067   -0.599190
    H    2.018504   -1.456267    0.233930
    H   -0.057876    1.759564   -0.939435
    H   -0.744808    1.400431    0.710689
    H   -1.202319   -1.136048   -1.037889
    O    1.850042   -0.494498    0.371391

