%NProcShared=4
#p ccsd(t,maxcyc=200)/6-311++G(3df,2p)

 ccsd(t) iener

-1 2
    C   -1.378182    0.781436   -0.119296
    C    0.754284   -0.151403    0.512621
    C   -0.648544   -0.533828    0.221490
    H    0.867898    0.394402    1.478483
    H   -0.696916   -1.260607   -0.594113
    H   -1.017176    1.564153    0.588724
    H   -1.092547   -0.996375    1.123255
    O    1.721549   -0.258576   -0.234044

