%NProcShared=4
#p ccsd(t,maxcyc=200)/6-311++G(3df,2p)

 ccsd(t) iener

-1 4
    C   -0.663225    0.395126    0.604159
    C    0.585174   -0.395137    0.446856
    C   -1.609922    0.590943   -0.532193
    H    1.484253    1.188262   -0.202534
    H    1.005175   -0.623894    1.437471
    H    0.381995   -1.353814   -0.063416
    H   -1.143733    0.183990    1.569406
    O    1.596113    0.241568   -0.361348

