%NProcShared=4
#p ccsd(t,maxcyc=200)/6-311++G(3df,2p)

 ccsd(t) iener

-1 4
    C   -1.354838    0.296662    0.355766
    C    2.438268   -0.401654   -0.185158
    O   -1.934173   -0.817719    0.294212
    C    1.067289   -0.406127    0.037766
    C    0.075028    0.498902    0.268235
    H   -1.932859    1.212565    0.577852
    H    3.028438    0.504517   -0.045916
    H    2.962724   -1.250780   -0.614548
    H    0.393537    1.538043    0.423090

