%NProcShared=4
#p ccsd(t,maxcyc=200)/6-311++G(3df,2p)

 ccsd(t) iener

-1 4
    C    1.219581    0.121107   -0.038103
    C   -2.223798   -0.406491   -0.419640
    O    1.954566    0.188621    0.935586
    C   -1.150790    0.055776    0.266788
    C   -0.040000    0.891676   -0.311196
    H    0.029267    1.902237    0.147345
    H   -2.732374   -1.361916   -0.500151
    H   -1.076296   -0.103661    1.343664
    H   -0.194638    1.016303   -1.384290

