%NProcShared=4
#p ccsd(t,maxcyc=200)/6-311++G(3df,2p)

 ccsd(t) iener

-1 4
    C   -0.919222    0.671433   -0.000088
    C    1.217176   -0.150445   -0.000516
    O    0.394969    1.055992   -0.000404
    C    0.192225   -1.223558   -0.000182
    C   -1.078439   -0.701230    0.000128
    H   -1.645744    1.467494    0.000010
    H    1.863344   -0.129158   -0.888109
    H    1.863809   -0.129035    0.886733
    H   -2.025805   -1.218752    0.000403

