%NProcShared=4
#p ccsd(t,maxcyc=200)/6-311++G(3df,2p)

 ccsd(t) iener

-1 4
    C    3.156292    3.386713    0.871778
    C    3.039702    1.892971    0.903717
    O    4.185098    1.212571    0.920961
    C    1.901976    1.123078    0.919828
    C    0.919846    0.396908    0.936143
    H    3.699558    3.728859   -0.016035
    H    3.687061    3.767351    1.751557
    H    2.154866    3.817798    0.855260
    H    0.041911   -0.200554    0.946317

