%NProcShared=4
#p ccsd(t,maxcyc=200)/6-311++G(3df,2p)

 ccsd(t) iener

-1 2
O  1.527381000 -2.534313000  0.476369000
C  0.137468000  1.558827000 -0.124700000
C  1.026976635 -1.434591034  0.295063237
C -0.602602427  0.421037264 -0.133399225
C -0.243447602 -0.952867022  0.051598347
H -0.330614520  2.521738392 -0.288121221
H  1.206858398  1.546884594  0.043300834
H -1.669421199  0.563113351 -0.313212748
H -1.052992955 -1.689913831 -0.005555187

