%NProcShared=4
#p ccsd(t,maxcyc=200)/6-311++G(3df,2p)

 ccsd(t) iener

-1 4
    C    0.477099   -0.348248   -0.271167
    H   -2.837933   -0.107515   -0.118176
    H    0.903191    0.339550   -1.038147
    H    1.303634   -0.464488    0.451114
    H    0.250123   -1.295514   -0.778941
    O   -0.595589    0.286335    0.271280

