%NProcShared=4
#p ccsd(t,maxcyc=200)/6-311++G(3df,2p)

 ccsd(t) iener

-1 1
    C   -0.981500   -0.217722   -1.036180
    C    0.787584    0.096800    0.826593
    C   -0.130816   -0.066269   -0.140310
    C    1.625254    0.245727    1.708626
    H    2.354193    0.364133    2.467263
    O   -1.809615   -0.366069   -1.908214

