%NProcShared=4
#p ccsd(t,maxcyc=200)/6-311++G(3df,2p)

 ccsd(t) iener

-1 1
    C   -1.079088    0.091570    0.466240
    C    1.087730    0.388124   -1.061085
    C    1.599632   -0.490972   -0.239528
    C    0.033663    0.084897   -0.120215
    H    1.214983    1.025378   -1.922740
    O   -2.145843    0.086899    1.042429

