%NProcShared=4
#p ccsd(t,maxcyc=200)/6-311++G(3df,2p)

 ccsd(t) iener

-1 2
    C    0.045903   -0.023435   -0.132771
    C   -0.495867    0.986675    0.688627
    C    0.796490    1.042028    0.138014
    H    0.642447   -1.461336   -1.225734
    H    1.714414    1.592719    0.037076
    O   -0.155335   -1.177444   -0.702033

