%NProcShared=4
#p ccsd(t,maxcyc=200)/6-311++G(3df,2p)

 ccsd(t) iener

-1 2
    C   -1.820285    1.013284    0.118231
    C   -0.806822    0.382341   -0.206540
    C    1.885397   -0.003798   -0.149384
    H    0.224046   -1.248462   -0.410373
    H    1.743082    1.091309   -0.056763
    O    0.309723   -0.311894   -0.614381

