%NProcShared=4
#p ccsd(t,maxcyc=200)/6-311++G(3df,2p)

 ccsd(t) iener

-1 4
    C   -0.661219   -0.011888   -0.125274
    C   -1.896105    0.557758   -0.304616
    C    0.628296    0.319682   -0.414648
    H    1.303969   -1.277306    0.344780
    H    0.945430    1.231158   -0.912697
    O    1.698256   -0.500627   -0.091199

