%NProcShared=4
#p ccsd(t,maxcyc=200)/6-311++G(3df,2p)

 ccsd(t) iener

-1 2
    C    0.872920   -0.746767    0.206297
    C   -2.872666    0.191126   -0.059503
    C   -0.314310   -0.212136    0.083105
    C   -1.624313   -0.039562    0.015713
    H    1.848466    0.879938   -0.033212
    H    1.085420   -1.797492    0.385800
    O    2.095968   -0.038598    0.125959

