%NProcShared=4
#p ccsd(t,maxcyc=200)/6-311++G(3df,2p)

 ccsd(t) iener

-1 1
    C   -0.657317    0.887837    0.107076
    C    0.075936   -1.274646   -0.060566
    O   -1.055479   -0.412576    0.030626
    C    1.151341   -0.397972   -0.033989
    C    0.698493    0.960785    0.071537
    H   -1.428090    1.640806    0.179393
    H    2.185340   -0.711606   -0.083908
    H    1.285110    1.868367    0.115977

