%NProcShared=4
#p ccsd(t,maxcyc=200)/6-311++G(3df,2p)

 ccsd(t) iener

-1 3
    C    0.726636    0.971617   -0.000297
    H   -2.067515   -0.851707    0.000324
    C    1.088513   -0.338160   -0.000084
    C   -1.114466   -0.354166    0.000186
    C   -0.690684    0.922423   -0.000212
    H    1.383231    1.826208   -0.000538
    H    2.046818   -0.829774   -0.000099
    O    0.000327   -1.157386    0.000055

