%NProcShared=4
#p ccsd(t,maxcyc=200)/6-311++G(3df,2p)

 ccsd(t) iener

-1 1
    C    0.190567    0.683271   -0.455871
    C   -0.728158   -0.431342   -0.344257
    O   -0.942539    0.754309    0.490888
    C    0.426528   -1.335910    0.277286
    C    1.240234   -0.241884    0.120289
    H    0.225044    1.498713   -1.178435
    H   -1.566163   -0.703675   -0.978383
    H    2.252242   -0.029368    0.460907

