%NProcShared=4
#p ccsd(t,maxcyc=200)/6-311++G(3df,2p)

 ccsd(t) iener

-1 4
    C    0.998623    0.329124    0.027958
    C   -0.253875   -0.391341    0.226627
    H   -1.100748    0.288584    0.405473
    H   -0.210654   -1.067270    1.088439
    H   -0.519354   -1.011321   -0.643214
    H    1.357715    1.060822   -0.679940

