%NProcShared=4
#p ccsd(t,maxcyc=200)/6-311++G(3df,2p)

 ccsd(t) iener

-1 4
    C    0.825056   -0.353915    0.009125
    C   -0.603322   -0.410227    0.200606
    H   -1.073685   -0.109208    1.133007
    H    1.473741   -1.192334    0.248892
    H   -1.277587   -0.756372   -0.578353
    H    1.321001    0.529630   -0.384085

