%NProcShared=4
#p ccsd(t,maxcyc=200)/6-311++G(3df,2p)

 ccsd(t) iener

-1 4
C -0.142936219 -0.118971962  0.048617206
C -1.076959781  0.205213962 -1.001353206
H -0.263557212  0.249810041  1.064030647
H  0.726667123 -0.747714788 -0.124837491
H -1.948187917 -0.410243304 -1.210608875
H -0.954713995  1.080632051 -1.634056282

