%NProcShared=4
#p ccsd(t,maxcyc=200)/6-311++G(3df,2p)

 ccsd(t) iener

-1 2
C  0.968421337  0.207596445 -0.622238522
C -0.303005631 -0.426603949 -0.075816924
H -1.107196848  0.306988906  0.161832688
H -0.153019495 -0.995440714  0.870379790
H -0.752834037 -1.139049213 -0.779642731
H  1.335127907  0.905674069  0.167114604

