%NProcShared=4
#p ccsd(t,maxcyc=200)/6-311++G(3df,2p)

 ccsd(t) iener

-1 2
    C    0.284646    0.696138   -0.127383
    C   -0.568049   -0.565289   -0.135239
    H   -0.855366   -0.882676    0.875387
    H   -0.065056   -1.446740   -0.594711
    H   -1.522869   -0.459961   -0.699140
    H    0.516986    0.923640   -1.194770

