%NProcShared=4
#p ccsd(t,maxcyc=200)/6-311++G(3df,2p)

 ccsd(t) iener

-1 2
    C   -0.733978    0.224715    0.537475
    C    0.653976   -0.405535    0.552848
    C   -1.048358    1.283061   -0.203576
    H    0.987101    0.989582   -0.691743
    H    1.077082   -0.395525    1.570793
    H    0.606376   -1.463937    0.248088
    H   -1.455183   -0.284708    1.202865
    O    1.548816    0.279391   -0.318347

