%NProcShared=4
#p ccsd(t,maxcyc=200)/6-311++G(3df,2p)

 ccsd(t) iener

-1 4
    C   -0.845516    0.469709   -0.089403
    C    0.607097    0.455133   -0.026434
    C   -1.691671   -0.174812   -0.910301
    H    2.085022   -0.126321    1.112371
    H    0.982986    0.056342   -0.992298
    H    1.000446    1.492257    0.025774
    H   -1.487335   -0.999890   -1.597672
    O    1.121810   -0.298011    1.061877

