%NProcShared=4
#p ccsd(t,maxcyc=200)/6-311++G(3df,2p)

 ccsd(t) iener

-1 4
    C   -0.209491    0.962678   -0.250922
    C    0.907656    0.001994   -0.455890
    C   -0.450925   -0.343886   -0.946723
    H    1.916920   -1.453131    0.310713
    H   -0.189820    1.852186   -0.886037
    H   -0.624927    1.146735    0.736476
    H   -1.108804   -1.129994   -0.599598
    O    1.507428   -0.600415    0.588187

