%NProcShared=4
#p ccsd(t,maxcyc=200)/6-311++G(3df,2p)

 ccsd(t) iener

-1 4
O  1.527590000 -2.460987000  0.469278000
C  0.159152000  1.530323000 -0.118646000
C  1.074770731 -1.321517471  0.291740083
C -0.730784949  0.397428399 -0.151150509
C -0.262827862 -0.902616904  0.043814763
H -0.199657895  2.540734111 -0.269412392
H  1.214356998  1.384284241  0.059633439
H -1.787578346  0.549544554 -0.330247911
H -0.995361800 -1.717308197  0.006003825

