%NProcShared=4
#p ccsd(t,maxcyc=200)/6-311++G(3df,2p)

 ccsd(t) iener

-1 4
    O    1.888908    0.802904    0.345648
    C   -0.347618   -0.048486   -0.028470
    C    0.666390    0.871170    0.276034
    C   -0.113919   -1.347651   -0.483809
    C   -1.789007    0.443866    0.013425
    H   -0.527687   -2.314896   -0.210399
    H   -1.827246    1.448806    0.438835
    H   -2.420657   -0.210520    0.626799
    H   -2.245163    0.477511   -0.983967

