%NProcShared=4
#p ccsd(t,maxcyc=200)/6-311++G(3df,2p)

 ccsd(t) iener

-1 2
    C    0.349399   -1.248995    0.628103
    C   -0.027530    0.646390   -0.836735
    O   -0.475683   -0.866449    1.625457
    C   -0.531070    1.700537   -1.138699
    C    0.582653   -0.587267   -0.515061
    H    0.833405   -2.190292    0.843689
    H   -0.888424   -0.020677    1.390290
    H   -0.972930    2.628009   -1.407518
    H    1.277378   -1.028222   -1.224395

