%NProcShared=4
#p ccsd(t,maxcyc=200)/6-311++G(3df,2p)

 ccsd(t) iener

-1 4
    O   -3.463687   -0.729792    0.000000
    C    1.201746    0.738881    0.000000
    C    0.351734   -0.499940    0.000000
    C   -0.999575   -0.537072   -0.000000
    C   -2.268808   -0.677198    0.000000
    H    1.856948    0.759231    0.879472
    H    1.856948    0.759231   -0.879472
    H    0.604590    1.649286   -0.000000
    H    0.860302   -1.462728   -0.000000

