%NProcShared=4
#p ccsd(t,maxcyc=200)/6-311++G(3df,2p)

 ccsd(t) iener

-1 2
    C   -0.321199    0.836786    0.000002
    C    0.165046   -1.571389   -0.678141
    O   -0.048112    2.046909   -0.000023
    C    0.165055   -1.571387    0.678135
    C    0.615629   -0.270671   -0.000005
    H   -1.386741    0.511343    0.000035
    H   -0.620068   -1.698158    1.425843
    H   -0.620096   -1.698151   -1.425830
    H    1.666093    0.013783   -0.000016

