%NProcShared=4
#p ccsd(t,maxcyc=200)/6-311++G(3df,2p)

 ccsd(t) iener

-1 4
    O    2.875299    0.768753   -0.000047
    C    0.711437   -0.305545    0.000066
    C    1.564136    0.814156   -0.000006
    C   -0.626102   -0.294838    0.000020
    C   -1.918942   -0.469130   -0.000009
    H    1.201695   -1.278532    0.000117
    H    1.182173    1.836339   -0.000104
    H   -2.494889   -0.535809    0.922894
    H   -2.494907   -0.535394   -0.922930

