%NProcShared=4
#p ccsd(t,maxcyc=200)/6-311++G(3df,2p)

 ccsd(t) iener

-1 4
    C   -0.970948    0.616537   -0.000000
    C    0.268104   -1.177131    0.000000
    O   -1.031158   -0.777834    0.000000
    C    1.259862   -0.057560   -0.000000
    C    0.269457    1.089430    0.000000
    H   -1.929653    1.108977   -0.000000
    H    1.924217   -0.047343    0.878963
    H    1.924217   -0.047343   -0.878963
    H    0.547613    2.132242    0.000000

