%NProcShared=4
#p ccsd(t,maxcyc=200)/6-311++G(3df,2p)

 ccsd(t) iener

-1 2
    C    0.268828   -0.326182   -0.307438
    H   -1.649919   -0.023433   -0.137142
    H    0.445114    0.405724   -1.103992
    H    1.121707   -0.313064    0.371896
    H    0.202468   -1.319474   -0.765949
    O   -0.887673   -0.013451    0.458587

