%NProcShared=4
#p ccsd(t,maxcyc=200)/6-311++G(3df,2p)

 ccsd(t) iener

-1 3
C -0.058731000  0.219316000 -0.031870000
C  0.912729000 -0.139706000  0.923905000
C -0.830294697  1.108967674 -0.718282556
C  1.325402833 -1.412310755  1.195221225
H  1.324311102  0.734887969  1.452305891
O -0.827937671 -0.454508500 -0.903871683

