%NProcShared=2
#p b3lyp/6-311++G(3df,2p) freq IOp(2/17=3) IOp(2/18=3)

 b3lyp opt

-1 2
    C    1.068761   -0.619630   -0.064023
    C   -1.676420   -0.481437    0.006097
    C   -1.210827    0.657753    0.617668
    C   -0.253776   -0.208699    0.153890
    H   -1.462957    1.583241    1.114196
    H    1.170265   -1.591102   -0.584976
    O    2.114354    0.012736    0.276782

