%NProcShared=2
#p b3lyp/6-311++G(3df,2p) freq IOp(2/17=3) IOp(2/18=3)

 b3lyp opt

-1 2
    C   -0.910286   -0.424469   -0.287366
    C    0.850363    0.873343    0.127834
    O   -0.481171    0.907569   -0.199751
    C    1.279689   -0.410617    0.250447
    C    0.159878   -1.258276   -0.013237
    H    1.346047    1.825681    0.237062
    H    0.112154   -2.334675   -0.010597

