%NProcShared=4
#p b3lyp/6-311++G(3df,2p) freq IOp(2/17=3) IOp(2/18=3)

 b3lyp opt

-1 1
    C    0.136880   -0.038392   -0.404755
    C    1.104069   -1.158771   -0.208745
    H   -0.739189   -0.114797   -1.066289
    H    0.490554    0.997610   -0.325123
    H    0.653224   -2.044758   -0.712589
    O    0.007976   -0.731594    0.811179

