%NProcShared=4
#p b3lyp/6-311++G(3df,2p) freq IOp(2/17=3) IOp(2/18=3)

 b3lyp opt

-1 1
    C   -0.608952    1.241454   -0.095857
    C    0.280767   -0.928908    0.448932
    H    0.814306   -0.417900    1.257159
    H   -1.124497    1.622427   -1.021352
    O   -0.299472    0.026732   -0.417359
    H    0.937828   -1.543774   -0.171534

