%NProcShared=4
#p b3lyp/6-311++G(3df,2p) freq IOp(2/17=3) IOp(2/18=3)

 b3lyp opt

-1 1
    C    0.181324    0.003378   -0.646391
    C    0.916511   -1.066047   -0.272368
    H    1.966018   -1.123498   -0.538304
    H    0.504878   -1.907846    0.302895
    H   -1.590099    0.686933   -0.516490
    O   -1.180120   -0.113116   -0.196782

