%NProcShared=4
#p b3lyp/6-311++G(3df,2p) freq IOp(2/17=3) IOp(2/18=3)

 b3lyp opt

-1 1
    C    0.800445    0.332863    0.761928
    C   -0.207579    0.483493   -0.082354
    H   -0.315038    1.130612   -0.961042
    H    1.651578    0.980123    0.506919
    H   -1.242861   -0.784070    0.828319
    O   -1.423004   -0.247284    0.040874

