%NProcShared=2
#p b3lyp/6-311++G(3df,2p) freq IOp(2/17=3) IOp(2/18=3)

 b3lyp opt

-1 3
C  1.124421116 -0.021055212 -0.007426772
C  0.761894363  1.103575516 -0.733639476
C -0.597215204 -1.512244344  0.616479186
H  1.651788525 -0.848110485 -0.493615223
H  1.415065065  0.068626123  1.044238275
H -0.234305890  1.403911588 -1.066020320
O -1.634304375 -1.148380171  0.239934251

