%NProcShared=4
#p b3lyp/6-311++G(3df,2p) freq IOp(2/17=3) IOp(2/18=3)

 b3lyp opt

-1 1
    C    0.780441   -1.032537    0.000000
    C   -0.018269    1.113660    0.000000
    O    1.112356    0.353776   -0.000000
    C   -1.115272    0.312638   -0.000000
    C   -0.607322   -1.030789    0.000000
    H    0.103705    2.186678    0.000000
    H   -2.143837    0.647095   -0.000000
    H   -1.211184   -1.928231    0.000000

