%NProcShared=2
#p b3lyp/6-311++G(3df,2p) freq IOp(2/17=3) IOp(2/18=3)

 b3lyp opt

-1 1
C  0.216233000  1.071526000 -0.137211000
C -0.683201000 -0.906135000  0.107125000
O -0.998784333  0.475379806 -0.023171690
C  0.642670971 -1.195265792  0.080489580
C  1.209868478  0.141906596 -0.082963454
H  0.200194917  2.146355990 -0.248402112
H -1.578960832 -1.502719186  0.207549709
H  2.264089848  0.384971649 -0.153371074

