%NProcShared=2
#p b3lyp/6-311++G(3df,2p) freq IOp(2/17=3) IOp(2/18=3)

 b3lyp opt

-1 2
C -0.097044000  0.216360000  0.479969000
C -1.189144000  0.220899000 -0.279473000
H -2.012468467  0.875515106 -0.010791875
H  0.961052894 -1.088599455 -0.464310371
H -0.012439284  0.846831728  1.353705273
H -1.303779728 -0.396863725 -1.157836369
O  1.035132787 -0.519799166  0.322382834

