#p b3lyp/6-311++G(3df,2p) opt freq symmetry=Loose

opt 

-1 2
C  0.577653860 -0.134958840  0.223280434
C -0.660431788 -0.337324874 -0.214643648
H -1.233150333  0.450837277 -0.692314356
H  1.150372404 -0.923120991  0.700951141
H -1.151848506 -1.299420738 -0.113368919
H  1.069070578  0.827137023  0.122005705

