#p b3lyp/6-311++G(3df,2p) opt freq symmetry=Loose

opt 

-1 4
C  0.827673743 -0.353811748  0.008774172
C -0.605939314 -0.410330252  0.200956543
H -1.070894339 -0.107577958  1.136766579
H  1.471797547 -1.196519308  0.250706071
H -1.275765791 -0.757819969 -0.582730856
H  1.318331440  0.533633235 -0.385280365

