#p b3lyp/6-311++G(3df,2p) opt freq symmetry=Loose

opt 

-1 2
    C    0.419217    0.486863   -0.160393
    C   -0.636761   -0.512539   -0.104475
    H   -0.893809   -0.883532    0.889960
    H    0.032000   -1.297651   -0.553484
    H   -1.511138   -0.451768   -0.767242
    H    0.380782    0.923738   -1.180223

