%NProcShared=4
#p b3lyp/6-311++G(3df,2p) freq IOp(2/17=3) IOp(2/18=3)

 b3lyp opt

-1 4
    C    0.079346    0.406787    0.349132
    C   -1.182747    0.275096   -0.353431
    H   -2.074047   -0.127869    0.127097
    H    0.671846   -1.381379   -0.092500
    H    0.258787    1.172069    1.090912
    H   -1.276423    0.489620   -1.415495
    O    0.904141   -0.680734    0.538513

