%NProcShared=4
#p b3lyp/6-311++G(3df,2p) freq IOp(2/17=3) IOp(2/18=3)

 b3lyp opt

-1 2
C -0.155889975 -0.114475989  0.034054906
C -1.064005168  0.200718060 -0.986790906
H  0.217676540  0.634460379  0.723060088
H  0.215594317 -1.122009044  0.182588839
H -1.437571682 -0.548218308 -1.675796088
H -1.435489460  1.208251115 -1.135324839

