#p b3lyp/6-311++G(3df,2p) opt freq symmetry=Loose

opt 

-1 2
C  0.999843674  0.327041908  0.031215606
C -0.260436164 -0.392557104  0.224496689
H -1.105086234  0.290550187  0.405624351
H -0.200928079 -1.063370673  1.088998169
H -0.521745297 -1.013708142 -0.646574758
H  1.360059493  1.060640983 -0.678416310

