%NProcShared=4
#p b3lyp/6-311++G(3df,2p) freq IOp(2/17=3) IOp(2/18=3)

 b3lyp opt

-1 4
C  0.206681846  0.600738018 -0.289360582
C -0.593319603 -0.610140146 -0.148191133
H -0.839047616 -0.823702900  0.898639496
H -0.073586980 -1.500602699 -0.534157209
H -1.551766605 -0.541645317 -0.685502191
H  0.641513294  1.140344459 -1.117266507

