%NProcShared=4
#p b3lyp/6-311++G(3df,2p) freq IOp(2/17=3) IOp(2/18=3)

 b3lyp opt

-1 4
    C   -1.118305   -1.179851    0.735494
    C    0.723151    0.523804    0.577986
    C   -0.639195   -0.066287    0.251817
    H    0.604968    1.346963    1.329941
    H    1.365756   -0.176256    1.137244
    H   -0.829376   -1.987261    1.386028
    H   -1.240769    0.550302   -0.412072
    O    1.403930    1.066810   -0.455477

