%NProcShared=4
#p b3lyp/6-311++G(3df,2p) freq IOp(2/17=3) IOp(2/18=3)

 b3lyp opt

-1 4
    C   -1.902649   -0.806300    0.206819
    C    0.337381    0.042173   -0.255356
    C   -0.607899   -0.570878    0.555058
    H    1.834951   -0.034497    0.972984
    H   -0.277757   -0.886150    1.541852
    H    0.100908    0.386565   -1.250043
    H   -2.547991   -0.644220   -0.639596
    O    1.626604    0.281680    0.072145

