%NProcShared=4
#p b3lyp/6-311++G(3df,2p) freq IOp(2/17=3) IOp(2/18=3)

 b3lyp opt

-1 2
    C   -1.189475    0.202971    0.510805
    C    2.346349   -0.405504   -0.229319
    O   -1.536524   -0.997713    0.597463
    C    1.138495    0.067742   -0.437020
    C    0.047637    0.739668    0.073677
    H   -1.920191    0.992167    0.807048
    H    2.824778   -0.384536    0.762343
    H    2.945072   -0.868427   -1.012126
    H    0.087274    1.828042    0.038430

