%NProcShared=4
#p b3lyp/6-311++G(3df,2p) freq IOp(2/17=3) IOp(2/18=3)

 b3lyp opt

-1 2
    C   -0.322302    0.836570   -0.000001
    C    0.166145   -1.571218   -0.678101
    O   -0.050322    2.046956    0.000001
    C    0.166144   -1.571218    0.678101
    C    0.615520   -0.270000   -0.000000
    H   -1.387528    0.510183    0.000001
    H   -0.618906   -1.698696    1.425787
    H   -0.618906   -1.698696   -1.425787
    H    1.665758    0.015183   -0.000000

