%NProcShared=4
#p b3lyp/6-311++G(3df,2p) freq IOp(2/17=3) IOp(2/18=3)

 b3lyp opt

-1 2
    O   -2.951434    1.069203    0.185614
    C    1.771000   -0.043114   -0.047883
    C    0.365166   -0.020019   -0.497653
    C   -0.825744    0.039790   -0.139315
    C   -2.199915    0.053386    0.086707
    H    1.865496   -0.076961    1.055179
    H    2.315173    0.841700   -0.391585
    H    2.310139   -0.908072   -0.444646
    H   -2.649980   -0.955914    0.193579

