%NProcShared=2
#p b3lyp/6-311++G(3df,2p) freq IOp(2/17=3) IOp(2/18=3)

 b3lyp opt

-1 4
    O   -3.463470   -0.729386    0.000000
    C    1.201504    0.738842   -0.000000
    C    0.352139   -0.500364   -0.000000
    C   -0.999337   -0.537251   -0.000000
    C   -2.268677   -0.676875    0.000000
    H    1.856784    0.759580    0.879430
    H    1.856784    0.759580   -0.879430
    H    0.603823    1.648889   -0.000000
    H    0.860652   -1.463117   -0.000000

