%NProcShared=2
#p b3lyp/6-311++G(3df,2p) freq IOp(2/17=3) IOp(2/18=3)

 b3lyp opt

-1 1
    C   -0.865723    0.486440   -0.481368
    C    0.323573   -0.791617    0.833542
    C    0.759796    0.455312    0.513165
    C    0.224039    1.424065   -0.262881
    H    0.697292   -1.599754    1.436116
    O   -0.842310   -0.859733    0.162599

