%NProcShared=2
#p b3lyp/6-311++G(3df,2p) freq IOp(2/17=3) IOp(2/18=3)

 b3lyp opt

-1 3
C -0.058731000  0.219316000 -0.031870000
C  0.912729000 -0.139706000  0.923905000
C -0.830294697  1.108967674 -0.718282556
C  1.325402833 -1.412310755  1.195221225
H  1.324311102  0.734887969  1.452305891
O -0.827937671 -0.454508500 -0.903871683

