%NProcShared=2
#p b3lyp/6-311++G(3df,2p) freq IOp(2/17=3) IOp(2/18=3)

 b3lyp opt

-1 1
    C   -0.669073   -0.061225    0.607246
    C    0.182159    0.122692   -1.270351
    C    1.755216   -0.963603    0.653559
    C    0.756731   -0.508091   -0.003340
    H    0.685987    1.087157   -1.444251
    O   -1.059000    0.516325   -0.473876

