%NProcShared=2
#p b3lyp/6-311++G(3df,2p) opt(MaxCycles=200) Symmetry=None

 b3lyp opt

-1 4
    C   -1.951322   -1.833774    0.056732
    C   -0.999067   -0.946692    0.027879
    C    0.983137    0.677489   -0.058371
    C   -0.065908   -0.064114    0.001227
    O    1.892840    1.400914   -0.100426

