%NProcShared=2
#p b3lyp/6-311++G(3df,2p) opt(MaxCycles=200) Symmetry=None

 b3lyp opt

-1 2
    C    0.745686    0.234619   -0.586401
    C   -0.310591   -0.209341    0.044385
    H    1.654883   -0.344690   -0.577945
    H    0.698252    1.176064   -1.109590
    O   -1.246451   -0.602735    0.603300

