%NProcShared=2
#p b3lyp/6-311++G(3df,2p) opt(MaxCycles=200) Symmetry=None

 b3lyp opt

-1 1
    C    1.180809    0.622169    0.713349
    C    0.950221   -0.403393   -0.098828
    H    1.676884   -1.126091   -0.452549
    H   -0.902722   -1.330672   -0.197458
    H   -0.590841   -0.382839   -1.487154
    O   -0.421943   -0.549145   -0.537684

