%NProcShared=2
#p b3lyp/6-311++G(3df,2p) opt(MaxCycles=200) Symmetry=None

 b3lyp opt

-1 3
    C   -0.465239    0.516776    0.266564
    H    0.896643    0.125374   -1.228617
    H    0.766169   -1.085022   -0.136945
    H   -0.328811    1.232059    1.076453
    O    0.665492   -0.123768   -0.307842

