%NProcShared=2
#p b3lyp/6-311++G(3df,2p) opt(MaxCycles=200) Symmetry=None

 b3lyp opt

-1 4
    O   -2.553199   -1.562818    0.023526
    C    1.027069   -0.246782    0.056059
    C    0.245961    1.026250   -0.067858
    C   -0.452079   -0.277417    0.004388
    C   -1.584930   -0.970467    0.014591
    H    1.465614   -0.514851    1.012514
    H    1.532289   -0.652129   -0.815392
    H    0.192985    1.530715   -1.027897
    H    0.126191    1.667598    0.800070

