%NProcShared=2
#p b3lyp/6-311++G(3df,2p) freq IOp(2/17=3) IOp(2/18=3)

 b3lyp opt

-1 2
    C   -0.653648    0.297363   -0.284989
    C   -1.888183    0.120540   -0.080490
    C    0.688935    0.432396   -0.477975
    H    1.061230   -1.236604    0.346024
    H    1.202070    1.257723   -0.950213
    O    1.608223   -0.552641   -0.056010

