%NProcShared=2
#p b3lyp/6-311++G(3df,2p) freq IOp(2/17=3) IOp(2/18=3)

 b3lyp opt

-1 4
    C   -0.661219   -0.011888   -0.125274
    C   -1.896105    0.557758   -0.304616
    C    0.628296    0.319682   -0.414648
    H    1.303969   -1.277306    0.344780
    H    0.945430    1.231158   -0.912697
    O    1.698256   -0.500627   -0.091199

