%NProcShared=2
#p b3lyp/6-311++G(3df,2p) freq IOp(2/17=3) IOp(2/18=3)

 b3lyp opt

-1 2
C  1.132594000  0.852154000 -0.381408000
C -1.120106000 -0.446674000  0.280783000
C -1.434264804 -0.039171902 -0.991895738
C -0.145100551  0.269811807 -0.363714879
H -1.460790016 -0.978650205  1.159058301
H  1.716411265  0.711776992  0.553091714
O  1.657782751  1.499018648 -1.333652476

