%NProcShared=2
#p b3lyp/6-311++G(3df,2p) freq IOp(2/17=3) IOp(2/18=3)

 b3lyp opt

-1 1
    C    0.183460    0.103435    0.012750
    C    0.856143   -1.030963   -0.277644
    H    0.586049   -1.693400   -1.112548
    H    1.707554   -1.326660    0.324947
    H   -1.298752    1.130186   -0.595961
    O   -0.906518    0.315735   -0.901261

