%NProcShared=4
#p b3lyp/6-311++G(3df,2p) freq IOp(2/17=3) IOp(2/18=3)

 b3lyp opt

-1 1
    C    1.165601   -0.933845    0.472714
    C    0.716366    0.629657   -1.064611
    C    0.208876   -0.065039    0.009632
    H    2.143112   -0.456572    0.545647
    H   -1.146741   -1.012163    0.897691
    H    0.052404    0.471045   -1.939243
    O   -1.149799   -0.259187    0.286870

