%NProcShared=4
#p b3lyp/6-311++G(3df,2p) freq IOp(2/17=3) IOp(2/18=3)

 b3lyp opt

-1 2
    C   -0.179819    0.556516   -0.448806
    C    0.722005    0.169416    0.406150
    C   -1.254051    1.141230   -0.974784
    H    1.837587   -0.866858   -0.756384
    H   -1.202578    2.122779   -1.436185
    H    0.680586    0.460895    1.455202
    H   -2.203135    0.621033   -1.062188
    O    1.833633   -0.627241    0.187402

