%NProcShared=4
#p b3lyp/6-311++G(3df,2p) freq IOp(2/17=3) IOp(2/18=3)

 b3lyp opt

-1 2
    C    0.349579   -1.248802    0.627814
    C   -0.027134    0.646125   -0.836904
    O   -0.475435   -0.865422    1.624926
    C   -0.531587    1.700061   -1.137911
    C    0.582893   -0.587645   -0.515567
    H    0.833364   -2.190133    0.843924
    H   -0.887862   -0.019628    1.389227
    H   -0.974160    2.627491   -1.405733
    H    1.277540   -1.029014   -1.224642

