%NProcShared=4
#p b3lyp/6-311++G(3df,2p) freq IOp(2/17=3) IOp(2/18=3)

 b3lyp opt

-1 2
    C   -0.917137   -0.700993    0.000000
    C    1.170393    0.174157   -0.000000
    O    0.391645   -1.114721   -0.000000
    C    0.227049    1.329739    0.000000
    C   -1.015441    0.696331   -0.000000
    H   -1.659111   -1.486452    0.000000
    H    1.822353    0.130353    0.886774
    H    1.822353    0.130353   -0.886774
    H   -1.979275    1.198515   -0.000000

