%NProcShared=4
#p b3lyp/6-311++G(3df,2p) freq IOp(2/17=3) IOp(2/18=3)

 b3lyp opt

-1 2
    C    0.000000   -1.093072    0.317862
    C   -0.000000    1.093072    0.317862
    O    0.000000    0.000000    1.129938
    C    0.000000    0.715472   -0.982707
    C   -0.000000   -0.715472   -0.982707
    H    0.000000   -2.049283    0.812138
    H   -0.000000    2.049283    0.812138
    H    0.000000    1.370900   -1.839123
    H   -0.000000   -1.370900   -1.839123

