%NProcShared=4
#p b3lyp/6-311++G(3df,2p) freq IOp(2/17=3) IOp(2/18=3)

 b3lyp opt

-1 4
    C   -0.970983    0.617159   -0.000000
    C    0.268074   -1.177285    0.000000
    O   -1.030875   -0.778056    0.000000
    C    1.260336   -0.057818   -0.000000
    C    0.269539    1.088851    0.000000
    H   -1.929523    1.109927   -0.000000
    H    1.923981   -0.047370    0.879321
    H    1.923981   -0.047370   -0.879321
    H    0.547177    2.131936    0.000000

