%NProcShared=4
#p b3lyp/6-311++G(3df,2p) freq IOp(2/17=3) IOp(2/18=3)

 b3lyp opt

-1 2
    O    0.060517   -0.477348    0.000464
    C    1.085765    0.467771    0.000032
    C    2.348842    0.086717    0.000044
    C   -1.172756   -0.056523    0.000424
    C   -2.329181    0.259639    0.000407
    H    0.741414    1.492167   -0.000292
    H    3.128213    0.838681   -0.000295
    H    2.638624   -0.953597    0.000379
    H   -3.352236    0.543794    0.000359

