%NProcShared=4
#p b3lyp/6-311++G(3df,2p) freq IOp(2/17=3) IOp(2/18=3)

 b3lyp opt

-1 2
    O   -2.684013   -1.137036    0.164646
    C    1.031927   -0.288103    0.028278
    C    0.118650    0.942566   -0.108755
    C   -0.400802   -0.444524   -0.212715
    C   -1.457197   -1.225981    0.087126
    H    1.457740   -0.474710    1.018661
    H    1.756529   -0.468166   -0.770991
    H    0.231567    1.564252   -0.999913
    H   -0.054500    1.531801    0.793663

