%NProcShared=4
#p b3lyp/6-311++G(3df,2p) freq IOp(2/17=3) IOp(2/18=3)

 b3lyp opt

-1 2
    C   -0.916451    0.701750   -0.000040
    C    1.170869   -0.175819   -0.000516
    O    0.392264    1.115039   -0.000445
    C    0.225903   -1.329671   -0.000190
    C   -1.016375   -0.695073    0.000096
    H   -1.658624    1.487155    0.000016
    H    1.822218   -0.131803   -0.887617
    H    1.822631   -0.131653    0.886275
    H   -1.980124   -1.197183    0.000395

