%NProcShared=2
#p b3lyp/6-311++G(3df,2p) freq IOp(2/17=3) IOp(2/18=3)

 b3lyp opt

-1 3
    C   -1.709725   -0.552429    0.153722
    C    0.868694    0.003222    0.734172
    C    1.977292    0.480008    0.096081
    C   -0.396755   -0.188049    0.144798
    H    0.881871   -0.278242    1.799154
    O   -0.912225   -0.001410   -1.082819

