#p ccsd(t)/6-311++G(3df,2p) scf(MaxCyc=300) guess(Huckel) 

ccsd(t) iener

0 1
    6       0.000000    0.000000   -1.119000
    6       0.000000    0.000000    0.201000
    6       0.000000    0.000000    1.481000
    1       0.000000    0.924000   -1.689000
    1       0.000000   -0.924000   -1.689000

