#p ccsd(t)/6-311++G(3df,2p) scf(MaxCyc=300) guess(Huckel) 

ccsd(t) iener

0 1
    6       0.000000    0.000000    0.045715
    6       0.000000    1.274625   -0.126620
    6       0.000000   -1.274625   -0.126620
    1       0.000000   -2.052876    0.622571
    1       0.000000    2.052876    0.622571

