%NProcShared=4
#p b3lyp/6-311++G(3df,2p) freq

 b3lyp opt

2 1
S  1.037834000 -1.236192000 -0.588635000
S -0.064051000  1.806326000  0.076364000
C  0.872146038  0.322393391 -0.131219639
C  1.504821897  1.435429755  0.415322028
H  2.421491483  1.869193839  0.824518367
H -0.240714710 -1.430852591 -1.026172035

