%NProcShared=4
#p b3lyp/6-311++G(3df,2p) freq

 b3lyp opt

1 4
    S    0.434138    0.637780   -0.086097
    S   -1.305133   -0.413430   -0.123530
    C    1.769284   -0.487615    0.030417
    C    2.979056    0.037314    0.063753
    H    1.567559   -1.557445    0.070816
    H   -0.766190   -1.650928   -0.048665

