%NProcShared=4
#p b3lyp/6-311++G(3df,2p) freq

 b3lyp opt

1 4
S  0.609892059 -0.260172609  1.028018706
S  0.841369357 -1.535247526 -1.812335305
C  1.422124485 -0.687170342 -0.429911137
C  2.744269366 -0.287505580 -0.501576848
H -0.422404869 -1.749176961 -1.390442038
H -0.596026658 -0.792794673  0.739992992

