%NProcShared=4
#p b3lyp/6-311++G(3df,2p) freq

 b3lyp opt

2 1
S  0.732469489 -1.358305244 -0.598122022
S -0.456935511  2.915576756 -0.356085022
C  0.003578989  1.397509256 -0.498618022
C  0.271954989  0.159762256 -0.455589022
H  0.095463643 -1.842472513  0.521919622
H  0.180070335  3.399744024 -1.476126667

