%NProcShared=4
#p b3lyp/6-311++G(3df,2p) freq

 b3lyp opt

2 1
S -0.008813000 -0.343169000  0.290457000
S -1.611962000  0.185825000 -0.469602000
C  1.269962614 -1.218069827 -0.367902725
C  2.407288932 -1.538185068  0.325346300
H  1.207695546 -1.562446971 -1.416307226
H  0.288547903 -0.023985287  1.596570316

