%NProcShared=4
#p b3lyp/6-311++G(3df,2p) freq

 b3lyp opt

2 3
S  0.939767990 -1.345965920 -0.251024079
S -0.077462778  3.044303918 -0.307882235
C  0.205883011  1.437794951 -0.399861368
C  0.438309322  0.208102222 -0.306046545
H -0.292072336 -1.889519080  0.041019850
H -0.387507453  3.217142054 -1.639110827

