%NProcShared=4
#p b3lyp/6-311++G(3df,2p) freq

 b3lyp opt

1 2
S  0.499270000  0.910935000 -0.147197000
S -1.395591000  0.374111000 -0.744206000
C  2.103317883 -1.405409015  0.257670585
C  1.350613853 -0.475774350  0.061978348
H  2.762758566 -2.229797364  0.428755116
H -1.192889396 -0.961106255 -0.730862318

