%NProcShared=4
#p b3lyp/6-311++G(3df,2p) freq

 b3lyp opt

0 3
S  0.579612524 -0.253589745  1.008129838
S  0.821549167 -1.555812860 -1.790295356
C  1.472498934 -0.681229064 -0.428337799
C  2.805896199 -0.295207185 -0.492691478
H -0.448959802 -1.753537856 -1.383562625
H -0.630920918 -0.774132800  0.721139520

