%NProcShared=4
#p b3lyp/6-311++G(3df,2p) freq

 b3lyp opt

1 2
    S    0.458834    0.099610   -0.307388
    S   -1.304458   -0.774291    0.111242
    C    1.819181   -1.062417   -0.374083
    C    2.232473   -1.159891    0.861929
    H    2.100582   -1.470063   -1.336527
    H    0.781969    0.773882    0.826511

