%NProcShared=4
#p b3lyp/6-311++G(3df,2p) freq

 b3lyp opt

0 1
    S    0.649567   -0.284419    0.324235
    S   -1.210894    0.235691   -0.527311
    C    1.482201    1.220753    0.788771
    C    2.045368    0.986667   -0.359640
    H    1.367163    1.817816    1.674055
    H   -0.809476    0.088555   -1.803166

