%NProcShared=4
#p b3lyp/6-311++G(3df,2p) freq

 b3lyp opt

1 2
    S    1.504415    0.231794    1.013051
    S   -1.262757   -0.819739   -0.269863
    C    0.425078   -0.793399    0.203106
    C    1.596514   -1.409142   -0.018209
    H   -1.255800   -2.018004   -0.911496
    H   -1.828339   -1.314748    0.864439

