%NProcShared=4
#p b3lyp/6-311++G(3df,2p) freq

 b3lyp opt

2 1
S  1.076175000 -0.996458000 -0.255542000
S -1.091221000  2.317116000  0.601654000
C  0.040022129  1.420823694  0.260747686
C  1.173971464  0.629097509 -0.067334689
H  2.117758166  1.172147705 -0.186760335
H  2.394769715 -1.204725144 -0.545992628

