%NProcShared=4
#p b3lyp/6-311++G(3df,2p) freq

 b3lyp opt

0 1
    S    0.363246    0.738282    0.099613
    S   -1.111008    0.127562   -1.245100
    C    2.289300   -1.407368    0.218794
    C    1.457738   -0.539882    0.133027
    H    3.020740   -2.174148    0.287444
    H   -1.892384   -0.531470   -0.368136

