%NProcShared=4
#p b3lyp/6-311++G(3df,2p) freq

 b3lyp opt

2 3
    S    0.543716   -1.351203   -0.140730
    S   -0.166990    1.859645    0.410929
    C    0.770568    0.341567    0.070771
    C    1.510983    1.397225    0.313894
    H    2.502785    1.836335    0.421879
    H    0.370485   -1.317246   -1.506639

