%NProcShared=4
#p b3lyp/6-311++G(3df,2p) freq

 b3lyp opt

0 3
S  0.915885000 -0.867853000 -0.325399000
S -1.272806000  1.839894000  0.500182000
C  0.305819620  1.726804162  0.288497164
C  1.269613892  0.811691182 -0.017219194
H  2.313500661  1.091069829 -0.083326030
H  2.179112198 -1.263168961 -0.558371611

