%NProcShared=4
#p b3lyp/6-311++G(3df,2p) freq

 b3lyp opt

1 2
S  1.028399000 -1.255613000 -0.597914000
S -0.123865000  1.764750000  0.042387000
C  0.934167431  0.342772739 -0.106631247
C  1.535318519  1.399969744  0.414481970
H  2.408798214  1.876883124  0.827642953
H -0.250992611 -1.362136913 -1.010791634

