%NProcShared=4
#p b3lyp/6-311++G(3df,2p) freq

 b3lyp opt

2 1
    S    1.146798   -0.746462   -0.763136
    S   -0.193211   -1.428573    1.131790
    C    2.043939    0.404209   -0.270550
    C    2.957146    1.423139   -0.150746
    H    0.030395   -2.760736    0.922622
    H   -1.360305   -1.426123    0.420171

