%NProcShared=4
#p b3lyp/6-311++G(3df,2p) freq

 b3lyp opt

2 1
S -1.510944000 -0.552913000  0.946869000
S  0.372340000 -1.219935000  0.612088000
C  1.658041982 -0.568916185  0.049899021
C  2.815360040 -0.070791552 -0.429649887
H -1.231355574  0.708702032  0.486860787
H  0.430348308 -2.545021179  0.995166603

