%NProcShared=4
#p b3lyp/6-311++G(3df,2p) freq

 b3lyp opt

2 1
    S    1.396462    1.862293   -0.896538
    S   -0.018558   -2.018494    0.695981
    C    0.459418   -0.540375    0.243697
    C    0.887093    0.547627   -0.284088
    H   -1.344579   -1.952015    1.049469
    H    0.619432   -2.334584    1.870852

