%NProcShared=4
#p b3lyp/6-311++G(3df,2p) freq

 b3lyp opt

0 1
    S   -0.047326    0.277038   -0.112734
    S   -1.506623   -0.737988    0.751740
    C    1.385823   -0.662910   -0.270261
    C    2.329436   -1.369123   -0.498362
    H    3.169279   -1.993758   -0.684311
    H    0.507910    1.091428    0.830930

