%NProcShared=4
#p b3lyp/6-311++G(3df,2p) freq

 b3lyp opt

1 2
S  1.183376944  0.291386591  1.535365958
S  1.031783845 -1.411518744 -2.615877136
C  0.978896346 -0.896765638 -1.063194109
C  1.020468821 -0.429765558  0.075231392
H  0.108094078 -2.396192065 -2.493628437
H  0.279382649 -0.472039693  2.196957752

