%NProcShared=4
#p b3lyp/6-311++G(3df,2p) freq

 b3lyp opt

0 1
    S    2.242771    0.640401    1.152407
    S   -1.268722   -1.189314   -0.305684
    C    1.142044   -0.287453    0.501761
    C    0.347221   -1.113603   -0.037921
    H   -1.426329   -2.254510   -1.138489
    H   -1.857875   -1.918760    0.708956

