%NProcShared=4
#p b3lyp/6-311++G(3df,2p) freq

 b3lyp opt

0 1
    S    1.413601   -1.006904    0.170334
    S   -1.193892    2.062507    0.212586
    C    0.194203    1.367796    0.184027
    C    1.359615    0.771172    0.164865
    H    2.278563    1.340227    0.215200
    H    1.659227   -1.196698   -1.141032

