%NProcShared=4
#p b3lyp/6-311++G(3df,2p) freq

 b3lyp opt

0 1
    S    1.058002   -1.190036   -0.809953
    S   -0.167352    1.834845   -0.068322
    C    0.967093    0.373096   -0.120740
    C    1.542228    1.355828    0.460270
    H    2.396009    1.822754    0.908880
    H   -0.264432   -1.430164   -0.800030

