%NProcShared=4
#p b3lyp/6-311++G(3df,2p) freq

 b3lyp opt

0 1
    S    0.449998    0.275760   -0.384895
    S   -1.082554   -0.302151    0.952714
    C    1.664575   -1.020448   -0.451938
    C    2.208609   -0.252790    0.447365
    H    1.682014   -1.911681   -1.051433
    H   -1.718856   -1.112510    0.087959

