%NProcShared=4
#p b3lyp/6-311++G(3df,2p) freq

 b3lyp opt

1 2
    S    0.160922    0.858403   -0.134266
    S   -1.457258   -0.127309    0.668373
    C    2.333295   -0.953452   -0.465580
    C    1.365085   -0.245026   -0.292834
    H    3.151669   -1.623936   -0.621670
    H   -0.874998   -1.343004    0.752672

