%NProcShared=4
#p b3lyp/6-311++G(3df,2p) freq

 b3lyp opt

1 2
S  1.067324000 -1.018291000 -0.281649000
S -1.101919000  2.295127000  0.594838000
C  0.087739646  1.422383207  0.250969352
C  1.162869475  0.666650564 -0.055015446
H  2.119064997  1.171591845 -0.156629461
H  2.376136547 -1.199280088 -0.547081406

