%NProcShared=4
#p b3lyp/6-311++G(3df,2p) freq

 b3lyp opt

0 3
S  1.244165000 -1.301481000 -0.601297000
S  0.098319000  2.686579000  0.542374000
C  0.708985823  0.235472838 -0.172820454
C  1.185197317  1.412525565  0.271606623
H  2.250951859  1.552905771  0.457023239
H  0.043952455 -1.819627600 -0.926937270

