%NProcShared=4
#p b3lyp/6-311++G(3df,2p) freq

 b3lyp opt

2 1
S  0.479750000  0.814759000 -0.156334000
S -1.396762000  0.450287000 -0.742709000
C  2.170735880 -1.406534691  0.278373368
C  1.317825017 -0.549585451  0.049432118
H  2.907815765 -2.178528444  0.475068146
H -1.351444529 -0.917384860 -0.779128989

