%NProcShared=4
#p b3lyp/6-311++G(3df,2p) freq

 b3lyp opt

1 2
S  0.736010358 -1.386860752 -0.593408712
S -0.460648643  2.943810248 -0.360590712
C  0.001597619  1.378916026 -0.489112320
C  0.274314621  0.178274027 -0.465792319
H  0.097916878 -1.834167946  0.516015519
H  0.177187366  3.391815466 -1.469881299

