%NProcShared=4
#p b3lyp/6-311++G(3df,2p) freq

 b3lyp opt

2 1
    S    1.441602    0.012820    1.141786
    S   -1.260873   -0.907968   -0.398494
    C    0.415732   -0.783371    0.166386
    C    1.744927   -1.224980   -0.161264
    H   -1.256092   -2.250789   -0.674891
    H   -1.906187   -0.968948    0.807504

