%NProcShared=4
#p b3lyp/6-311++G(3df,2p) freq

 b3lyp opt

1 3
S -0.408581000 -0.239780000  1.222648000
C  1.419696000  0.631642000 -0.814537000
C  0.892884966  0.085627185  0.307781935
H  0.796078546  1.127292953 -1.558852406
H  2.489496736  0.587442371 -1.000810846
H -1.400163876  0.317989452  0.457245027

