%NProcShared=4
#p b3lyp/6-311++G(3df,2p) freq

 b3lyp opt

2 2
    S   -1.619380   -0.026173   -0.604946
    S    1.669996   -0.267395   -0.039798
    C   -0.017863    0.264799    0.064606
    C   -0.862963    1.189999    0.432328
    H    2.081463    0.189859    1.181365
    H   -1.131611    2.107544    0.949561
    H    1.487234   -1.563976    0.354573

