%NProcShared=4
#p b3lyp/6-311++G(3df,2p) freq

 b3lyp opt

1 3
    S   -0.145953   -0.480919    0.598427
    C    1.238837    0.550101   -0.057108
    C   -1.491482    0.325317    0.429151
    H    1.066295    0.725960   -1.115579
    H    1.290624    1.467955    0.522392
    H    2.112238   -0.082570    0.109853

