%NProcShared=4
#p b3lyp/6-311++G(3df,2p) freq

 b3lyp opt

1 1
    S   -1.635068    0.208228   -0.894535
    S    1.574934   -0.329854   -0.041503
    C   -0.052273    0.183415    0.086923
    C   -0.880897    1.087852    0.475411
    H    2.135781    0.332051    1.002774
    H   -1.083430    1.943546    1.099153
    H    1.547828   -1.530581    0.609468

