%NProcShared=4
#p b3lyp/6-311++G(3df,2p) freq

 b3lyp opt

0 2
    S   -1.829743   -0.358882   -0.683648
    S    1.732380    0.423739   -0.404346
    C    0.295834    1.071377    0.586690
    C   -1.042205    0.628275    0.231839
    H    0.460307    0.855024    1.644569
    H    0.354904    2.157207    0.488640
    H    1.449722   -0.876155   -0.226165

