%NProcShared=4
#p b3lyp/6-311++G(3df,2p) freq

 b3lyp opt

1 3
S -1.063363000 -1.008253000  1.618818000
S  1.309906000 -0.266853000 -0.694559000
C -0.750749636  0.473142199  0.925754284
C  0.203615157  0.822523926 -0.018906896
H -1.408891263  1.265046961  1.287341379
H  0.238739863  1.855033404 -0.339835009
H  1.938335144  0.611753135 -1.498610024

