%NProcShared=4
#p b3lyp/6-311++G(3df,2p) freq

 b3lyp opt

0 2
    S   -1.772104    1.175977   -0.751004
    S    1.288127   -0.551999   -0.642684
    C    0.583409    0.527975    0.707298
    C   -0.701812    1.117048    0.383552
    H    0.473364   -0.063443    1.618590
    H    1.288214    1.332489    0.926968
    H    2.411939   -0.869440    0.021611

