%NProcShared=4
#p b3lyp/6-311++G(3df,2p) freq

 b3lyp opt

0 4
    S   -0.968476    0.349764    0.865631
    S    1.668904   -0.728600   -0.334178
    C    0.768417    0.091092    0.886931
    C   -1.263752    1.271937   -0.509370
    H    1.270687    0.241198    1.831127
    H   -1.308503    2.349167   -0.639059
    H    0.780674   -0.572578   -1.332023

