%NProcShared=4
#p b3lyp/6-311++G(3df,2p) freq

 b3lyp opt

2 2
    S   -0.340150   -1.026572    0.777161
    S    1.424519   -0.090272   -0.148695
    C   -0.764422    0.622345    0.828878
    C    0.239899    1.271406    0.143744
    H   -1.662833    1.020490    1.300058
    H    0.407784    2.306586   -0.148428
    H    1.163041   -0.351511   -1.472435

