%NProcShared=4
#p b3lyp/6-311++G(3df,2p) freq

 b3lyp opt

1 3
    S   -0.590264    0.967934    1.016896
    S    1.622500   -0.681596   -0.331952
    C    0.759667   -0.042393    0.953984
    C   -1.036630    1.308402   -0.512761
    H    1.113901   -0.312327    1.943288
    H   -1.820316    1.897584   -0.966905
    H    0.899094   -0.135627   -1.333492

