%NProcShared=4
#p b3lyp/6-311++G(3df,2p) freq

 b3lyp opt

1 1
S -0.715869000  0.526022000 -0.423104000
S  1.925137000 -0.954371000 -0.161129000
C  0.781767508  0.108269105  0.356564303
C -1.273859719  1.630749460  0.706671376
H  0.967673480  0.621814454  1.299450723
H -2.244815159  1.986591907  0.328396297
H  1.322691214 -1.345380149 -1.311369165

