%NProcShared=4
#p b3lyp/6-311++G(3df,2p) freq

 b3lyp opt

1 1
    S   -0.585878    0.831958    0.903830
    S    1.874312   -0.687819   -0.178884
    C    0.980201   -0.203975    1.027483
    C   -0.773758    1.092278   -0.670893
    H    1.137649   -0.396955    2.085319
    H   -1.622861    1.677403   -1.006230
    H   -0.061714    0.689089   -1.391566

