%NProcShared=4
#p b3lyp/6-311++G(3df,2p) freq

 b3lyp opt

0 2
    S   -0.824044   -1.885557    0.536278
    S    0.471771    0.740218   -0.506805
    C    0.113052   -0.415510    0.977230
    C    0.157246    2.256467   -0.047326
    H    1.075999   -0.655560    1.416491
    H   -0.480853    0.172999    1.669604
    H    0.180809   -2.556043   -0.050111

