%NProcShared=4
#p b3lyp/6-311++G(3df,2p) freq

 b3lyp opt

0 4
    S   -2.241249   -0.655085    0.014851
    S    1.442543    0.234158    0.464043
    C    0.328519   -0.000675   -0.852945
    C   -0.731312   -0.971909   -0.721934
    H    0.428896    0.644399   -1.716531
    H   -0.624002   -1.996350   -1.076802
    H    2.218280    1.166798   -0.116136

