%NProcShared=4
#p b3lyp/6-311++G(3df,2p) freq

 b3lyp opt

1 3
    S    0.338782   -1.660493    1.352615
    S    0.255554    0.697890   -0.636448
    C   -0.342089   -0.141620    0.753819
    C   -0.765022    2.023201   -0.789714
    H    1.575729   -1.287098    1.784194
    H   -1.185531    0.222553    1.328289
    H    0.816556   -2.197419    0.202607

