%NProcShared=4
#p b3lyp/6-311++G(3df,2p) freq

 b3lyp opt

1 1
    S   -1.840122   -0.006694   -1.140648
    S    1.326008    0.280727    0.158033
    C   -0.232082   -0.255389   -0.228368
    C   -1.101573   -1.189530   -0.036259
    H    1.839215    0.601406   -1.065505
    H   -1.361235   -2.121827    0.440716
    H    1.115657    1.590589    0.479676

