%NProcShared=4
#p b3lyp/6-311++G(3df,2p) freq

 b3lyp opt

1 1
    S   -0.361979    0.583007   -0.753351
    S    1.343332    0.049576    0.362207
    C   -0.545731   -1.291661   -0.702203
    C   -0.429565   -0.729426    0.662767
    H    0.243532   -1.799129   -1.250532
    H   -1.557316   -1.588058   -0.969455
    H    1.243865    0.993745    1.330860

