%NProcShared=4
#p b3lyp/6-311++G(3df,2p) freq

 b3lyp opt

1 1
S -0.414267541  0.286395970  1.301711664
C  1.418864119  0.688150294 -0.873983745
C  0.558507129  0.467304055  0.050318331
H  1.320234844  1.546031757 -1.537965723
H  2.261559264  0.015209383 -1.027527964
H -1.355383753 -0.492555365  0.701167415

