%NProcShared=4
#p b3lyp/6-311++G(3df,2p) freq

 b3lyp opt

1 3
S -0.886758000 -0.765396000  0.103771000
S  1.280972000  1.213758000  0.266595000
C  0.394557931  0.079125471 -0.624612031
C -1.544719399 -1.771705571 -0.973704566
H  0.634704498 -0.117622386 -1.661034458
H -1.548886280 -2.170982225 -1.976436679
H  2.111814395  1.550887809 -0.739227699

