%NProcShared=4
#p b3lyp/6-311++G(3df,2p) freq

 b3lyp opt

0 2
    S   -0.697843   -1.352041    0.410441
    S    1.552503    0.921911    0.128599
    C   -0.189544    0.504522    0.109726
    C   -0.980873    0.356099    1.294771
    H    1.681999    0.851408    1.465400
    H   -0.627804    0.822386   -0.838122
    H   -1.804529   -1.376555   -0.365565

