%NProcShared=4
#p b3lyp/6-311++G(3df,2p) freq

 b3lyp opt

1 1
    S   -1.846053    0.760688    1.319653
    S    1.868031    0.065494   -0.599950
    C    0.612127    0.267761    0.455461
    C   -0.743097    0.613164    0.136358
    H    0.869726    0.116324    1.500442
    H   -0.996495    0.765008   -0.911370
    H    1.201104    0.322519   -1.750222

