%NProcShared=4
#p b3lyp/6-311++G(3df,2p) freq

 b3lyp opt

1 1
    S   -0.250414   -0.176802   -0.345245
    S    1.720305    0.199946   -0.963882
    C   -0.448388    0.613889    1.243890
    C   -0.892784    1.361798    0.296540
    H   -0.212869    0.406665    2.275950
    H   -1.319134    2.274779   -0.088450
    H    1.684381   -0.848817   -1.812511

