%NProcShared=4
#p b3lyp/6-311++G(3df,2p) freq

 b3lyp opt

1 1
S -1.444613288 -1.370277136  1.463642363
S  1.758430873  0.409709308 -0.115938607
C  0.324665921 -0.452261365 -0.580164784
C -0.488153338 -0.872353273  0.388432013
H  2.736937795 -0.203499716 -0.828579838
H  0.117170053 -0.631490585 -1.626082662
H  1.743408444  1.500171450 -0.923419425

