%NProcShared=4
#p b3lyp/6-311++G(3df,2p) freq

 b3lyp opt

0 2
    S   -0.983039   -0.259951   -0.305876
    C    1.525873   -0.304612    0.938279
    C    0.675683   -0.016707   -0.018765
    H    2.510911    0.147144    0.967793
    H    1.292892   -1.014981    1.730264
    H   -0.890484   -0.634483   -1.595481

