%NProcShared=4
#p b3lyp/6-311++G(3df,2p) freq

 b3lyp opt

0 4
    S   -0.907949   -0.000250    0.472945
    S    1.910436   -0.570111   -0.605617
    C    0.843206    0.064920    0.589406
    C   -1.457890    1.581008    0.329953
    H    1.305889    0.372476    1.515842
    H   -1.744362    2.149464   -0.549502
    H    1.016013   -0.686549   -1.602654

