%NProcShared=4
#p b3lyp/6-311++G(3df,2p) freq

 b3lyp opt

1 3
    S   -0.667587    0.457834   -0.409437
    S    1.993742   -0.918788   -0.309170
    C    0.872115    0.211929    0.235825
    C   -1.365043    1.650071    0.453618
    H    1.189906    0.820920    1.074144
    H   -2.324345    2.146179    0.418067
    H    1.266554   -1.457186   -1.312675

