%NProcShared=4
#p b3lyp/6-311++G(3df,2p) freq

 b3lyp opt

0 2
    S   -0.271886   -0.560388   -0.400309
    S    1.757553   -0.896992   -0.602530
    C   -0.364442    0.767575    0.819214
    C   -1.211289    1.742064    0.675003
    H    0.287707    0.644055    1.676483
    H   -1.948367    2.104964   -0.019764
    H    2.031821    0.030180   -1.541806

