%NProcShared=4
#p b3lyp/6-311++G(3df,2p) freq

 b3lyp opt

2 2
    S   -0.315526    0.060039    1.371026
    C    1.429212    0.679089   -0.886932
    C    0.565694    0.385980    0.088380
    H    1.176467    1.408429   -1.682247
    H    2.423058    0.188989   -0.937908
    H   -1.489438   -0.211915    0.661373

