%NProcShared=4
#p b3lyp/6-311++G(3df,2p) freq

 b3lyp opt

2 2
S -0.772417000  0.404368000 -0.489585000
S  2.007666000 -0.868852000 -0.263874000
C  0.887954103  0.205699342  0.218545735
C -1.372789457  1.587292604  0.388356682
H  1.151455435  0.871037966  1.042160192
H -2.266240681  2.203527777  0.527140381
H  1.329607489 -1.492315094 -1.272179573

