%NProcShared=4
#p b3lyp/6-311++G(3df,2p) freq

 b3lyp opt

1 1
    S   -0.267781   -1.069722    0.783683
    S    1.373915   -0.062948   -0.142886
    C   -0.744503    0.636584    0.782954
    C    0.227519    1.287199    0.144596
    H   -1.650958    1.005039    1.242730
    H    0.437050    2.317374   -0.091924
    H    1.092598   -0.361057   -1.438872

