%NProcShared=4
#p b3lyp/6-311++G(3df,2p) freq

 b3lyp opt

2 2
    S   -0.420616    1.442380    1.052761
    S    1.219446   -1.122022   -1.860127
    C   -0.159867   -0.603496   -0.992449
    C   -0.222025    0.271309    0.008501
    H    2.165154   -0.370071   -1.230740
    H   -1.100667   -1.072993   -1.309100
    H   -0.275583    0.682236    2.194486

