%NProcShared=4
#p b3lyp/6-311++G(3df,2p) freq

 b3lyp opt

0 2
    S   -0.695811   -1.321481   -0.391902
    S    1.694727    0.470618   -0.191343
    C   -0.036326    0.215697    0.221113
    C   -0.808112    1.081923    0.810780
    H    1.925096    1.464289    0.684344
    H   -0.811358    2.076531    1.216431
    H    0.338661   -2.092922   -0.011733

