%NProcShared=4
#p b3lyp/6-311++G(3df,2p) freq

 b3lyp opt

1 1
    S   -2.126237   -0.104314   -0.576759
    S    1.657015    0.429061   -0.536332
    C    0.306232    1.028510    0.572354
    C   -0.890957    0.482261    0.027839
    H    0.445941    0.737592    1.616197
    H    0.280063    2.121334    0.517316
    H    1.749144   -0.793858    0.016964

