%NProcShared=4
#p b3lyp/6-311++G(3df,2p) freq

 b3lyp opt

2 2
    S   -0.435346   -0.072898   -0.330237
    S    1.761894   -0.436564   -0.719348
    C   -0.533379    0.871906    1.211028
    C   -0.585428    1.653006    0.195771
    H   -0.566276    0.594863    2.262307
    H   -0.697203    2.594658   -0.336940
    H    1.517385   -1.511008   -1.536826

