%NProcShared=4
#p b3lyp/6-311++G(3df,2p) freq

 b3lyp opt

2 2
    S   -1.508712   -1.411201    1.419559
    S    1.855220    0.468651   -0.082554
    C    0.347494   -0.435483   -0.531422
    C   -0.507220   -0.881941    0.419215
    H    2.713296   -0.234792   -0.880726
    H    0.139383   -0.614844   -1.587888
    H    1.707881    1.490474   -0.978343

