%NProcShared=4
#p b3lyp/6-311++G(3df,2p) freq

 b3lyp opt

1 1
    S   -1.768400   -1.009203    0.542522
    S    0.993487    0.700939    0.520694
    C    0.410493   -0.120037   -0.790254
    C   -0.820698   -0.878184   -0.768306
    H    0.981102   -0.087724   -1.713903
    H   -1.076463   -1.362475   -1.707657
    H    2.102152    1.178020   -0.088551

