%NProcShared=4
#p b3lyp/6-311++G(3df,2p) freq

 b3lyp opt

1 1
S  1.322615178  0.256382762 -0.039429226
S -1.434173785  1.271310798  0.104844809
C -0.255347314  0.153408346  0.513627251
H  1.767732087 -0.851694063  0.586812392
H -0.524813486 -0.670834512  1.162987461
H -2.430336422  0.693849496  0.806514476

