%NProcShared=4
#p b3lyp/6-311++G(3df,2p) freq

 b3lyp opt

0 2
    S    1.464096   -0.154334    0.646646
    S   -1.237798    0.889061   -0.186894
    C   -0.216399    0.089037    0.974583
    H    1.350638   -0.540070   -0.639751
    H   -0.497043    0.073159    2.016740
    H   -2.417790    0.495531    0.323995

