%NProcShared=4
#p b3lyp/6-311++G(3df,2p) freq

 b3lyp opt

0 2
    S   -0.142494    0.650039   -0.797544
    S   -2.108118    0.757892   -0.065747
    C    0.151990   -1.001798   -1.051464
    H    0.807616   -1.266269   -1.867739
    H   -1.795548    0.832817    1.240967
    H   -0.283468   -1.760523   -0.420666

