%NProcShared=4
#p b3lyp/6-311++G(3df,2p) freq

 b3lyp opt

1 1
    S   -0.226485    0.430045   -0.516363
    S   -1.959567    0.207365    0.553117
    C    0.144813   -1.002794   -1.142559
    H    1.050854   -1.027936   -1.738828
    H   -1.945705    1.514137    0.890198
    H   -0.433931   -1.908661   -1.007757

