%NProcShared=4
#p b3lyp/6-311++G(3df,2p) freq

 b3lyp opt

1 1
    S    1.414982   -0.427069   -0.331923
    S   -0.945224    1.021127    0.771295
    C    0.519216    0.899973   -0.118013
    H    0.713024   -1.487291    0.184926
    H   -1.647616    1.838422   -0.042357
    H   -1.759060   -0.074360    0.633561

