%NProcShared=4
#p b3lyp/6-311++G(3df,2p) freq

 b3lyp opt

2 1
S -0.029339372  0.182535707  0.206321371
C  0.031127073 -1.548135870 -0.778172387
C -0.731130700  1.892960100  0.947971956
H  0.528210916 -0.279285854  1.373181699
H  1.133582822  0.699138179 -0.309992461
H -0.974461730 -1.716046035 -1.238957666
H -1.796768585  1.996132314  0.623168735

