%NProcShared=4
#p b3lyp/6-311++G(3df,2p) freq

 b3lyp opt

1 4
    S    0.053040    0.835424    0.970429
    C   -0.383555    0.199676   -0.599099
    C    0.332543   -0.835443   -1.296153
    H    0.034516   -1.873526   -1.190050
    H    1.152908   -0.586669   -1.960730
    H   -0.645136    0.004579    1.809000
    H   -1.267430    0.709017   -0.999707

