%NProcShared=4
#p b3lyp/6-311++G(3df,2p) freq

 b3lyp opt

2 1
S  0.999826628  0.458427154  0.771987556
C -1.629690604  0.444568530  0.601238968
C -0.579887292  0.040476025 -0.220706633
H  0.683940789 -0.093570097  1.986621165
H  0.729363501  1.751948712  1.137324807
H -0.607041232 -1.058372526 -0.432187220
H -0.566350408  0.594890319 -1.193008570

