%NProcShared=4
#p b3lyp/6-311++G(3df,2p) freq

 b3lyp opt

0 1
    S    1.988644    1.118566   -0.322362
    S   -1.813641   -0.114779   -0.424330
    C    0.351841    1.329450    0.489191
    C   -0.426803    0.064158    0.386718
    H    0.027407   -0.786062    0.894825
    H    1.508267    0.895149   -1.556609
    H    0.599108    1.542598    1.531292
    H   -0.181887    2.173832    0.063072

