%NProcShared=4
#p b3lyp/6-311++G(3df,2p) freq

 b3lyp opt

0 3
    S    0.110118    0.218624    0.290076
    C   -0.259261   -1.283768   -0.507442
    C   -0.864301    1.549916    0.191033
    H    0.653988   -0.269922    1.468723
    H    1.305535    0.629012   -0.201141
    H   -1.039101   -1.036860   -1.243386
    H   -1.745759    1.420312    0.825667

