%NProcShared=4
#p b3lyp/6-311++G(3df,2p) freq

 b3lyp opt

1 2
S  0.887847021  0.178643725  0.293520751
C -1.489424757 -0.481130972 -0.823392388
C -0.944264668  0.286742365  0.054249733
H  0.943729195  0.106583516  1.644458295
H  1.205461584  1.494618275  0.267449483
H -1.419912843 -1.243064655 -1.578214657
H -1.427641498  1.013507960  0.694957713

