%NProcShared=4
#p b3lyp/6-311++G(3df,2p) freq

 b3lyp opt

2 1
S  1.082055549  0.253055803  0.410098624
C -1.313667301 -0.552709420 -0.864403531
C -0.658001380  0.139648890 -0.041315648
H  0.897582833  0.203980455  1.766972932
H  1.170648256  1.619461681  0.358788088
H -1.988489380 -1.091935499 -1.537280370
H -1.433966094  0.786333026  0.458249536

