%NProcShared=4
#p b3lyp/6-311++G(3df,2p) freq

 b3lyp opt

0 1
    S   -0.136431   -0.178445    1.265906
    C   -0.234758    0.030152   -0.483794
    C    0.309152   -0.809362   -1.357288
    H    0.836611   -1.704124   -1.053857
    H    0.239994   -0.613148   -2.417761
    H   -0.979541    0.810374    1.593480
    H   -0.758143    0.917609   -0.812996

