%NProcShared=4
#p b3lyp/6-311++G(3df,2p) freq

 b3lyp opt

2 1
    S    1.421931   -0.069526   -0.215930
    S   -2.334348    1.178188   -1.279661
    C   -0.199972   -0.780317   -0.844693
    C   -1.228897    0.223217   -1.040625
    H    1.191204   -0.166545    1.121339
    H    2.122038   -1.234874   -0.286822
    H    0.036799   -1.237885   -1.815408
    H   -0.558843   -1.557933   -0.160738

