%NProcShared=4
#p b3lyp/6-311++G(3df,2p) freq

 b3lyp opt

1 2
    S    0.950088    0.437154    0.718341
    C   -1.496243    0.533965    0.788933
    C   -0.574037    0.027599   -0.249325
    H    0.569163   -0.098058    1.911029
    H    0.602914    1.699827    1.093128
    H   -0.532619   -1.054668   -0.423080
    H   -0.489151    0.590624   -1.186869

