%NProcShared=4
#p b3lyp/6-311++G(3df,2p) freq

 b3lyp opt

2 1
S  1.555007654 -1.007408451  0.029182775
S -2.280831116  0.668185096 -0.028904658
C -0.105439111 -1.126640714 -0.814721724
C -1.149403172 -0.216941291 -0.390720040
H  1.768520668  0.333351697 -0.042327173
H  1.165798487 -0.998788947  1.331788311
H -0.432612127 -2.165701911 -0.669658914
H  0.100548163 -0.987307431 -1.885183798

