%NProcShared=4
#p b3lyp/6-311++G(3df,2p) freq

 b3lyp opt

0 3
S  0.177783368  0.189165582  1.171794948
C -0.410712870 -0.036613864 -0.451992446
C  0.359728441 -0.816434847 -1.391928447
H  0.224386001 -1.889377244 -1.489406371
H  1.116317622 -0.362681218 -2.024941374
H -0.836373342  0.942217122  1.629509858
H -1.355212921  0.425115235 -0.708762739

