%NProcShared=4
#p b3lyp/6-311++G(3df,2p) freq

 b3lyp opt

0 3
    S    1.972182    1.155805   -0.432567
    S   -1.640590   -0.200874   -0.682712
    C    0.373067    1.313238    0.527617
    C   -0.472544    0.095726    0.513143
    H   -0.142206   -0.778547    1.064443
    H    1.402993    0.923431   -1.625681
    H    0.714513    1.525844    1.539729
    H   -0.154479    2.188290    0.157824

