%NProcShared=4
#p b3lyp/6-311++G(3df,2p) freq

 b3lyp opt

0 1
    S   -0.002641   -0.233692    0.232779
    C   -0.351039   -1.648744   -0.376824
    C   -0.374474    1.363553    0.301545
    H    1.046873   -0.337994    1.058102
    H    0.239216    1.973338    0.944561
    H   -1.199901   -1.635324   -1.059978
    H   -1.196815    1.746175   -0.276657

