%NProcShared=4
#p b3lyp/6-311++G(3df,2p) freq

 b3lyp opt

2 3
    S    2.001651    1.412970   -0.314761
    S   -2.013146   -0.078740   -0.001660
    C    0.329971    1.338101    0.436236
    C   -0.442782    0.050545    0.309055
    H    0.077238   -0.894212    0.517498
    H    1.794872    0.647169   -1.425193
    H    0.503697    1.532012    1.506542
    H   -0.198564    2.215069    0.034081

