%NProcShared=4
#p b3lyp/6-311++G(3df,2p) freq

 b3lyp opt

1 2
    S    1.916422    0.911616   -0.353636
    S   -1.708712   -0.189194   -0.513681
    C    0.370595    1.344579    0.494641
    C   -0.419426    0.053734    0.416482
    H   -0.058865   -0.756613    1.047891
    H    1.466364    1.112012   -1.606617
    H    0.617211    1.554756    1.534488
    H   -0.130654    2.192022    0.042231

