%NProcShared=4
#p b3lyp/6-311++G(3df,2p) freq

 b3lyp opt

2 3
S  1.052572034  0.454983579  0.767359995
C -1.838156331  0.375713907  0.440432748
C -0.578538568  0.076909127 -0.141416751
H  0.767561611 -0.092288572  1.984608978
H  0.812838876  1.746194381  1.138487347
H -0.612769532 -1.011954937 -0.400742186
H -0.573348241  0.588746205 -1.137429932

