%NProcShared=4
#p b3lyp/6-311++G(3df,2p) freq

 b3lyp opt

1 4
    S    1.055405    0.444704    0.745296
    C   -1.798622    0.427869    0.553939
    C   -0.651292    0.049557   -0.204852
    H    0.715008   -0.083583    1.941413
    H    0.757679    1.708603    1.118872
    H   -0.544612   -1.025493   -0.373452
    H   -0.503451    0.614786   -1.129061

