%NProcShared=4
#p b3lyp/6-311++G(3df,2p) freq

 b3lyp opt

1 2
    S    1.219175    0.356373   -0.180840
    S   -1.781945    0.294392   -0.390307
    C   -0.323846    1.123315   -0.108049
    H    1.967538    1.190851   -0.952326
    H   -1.278113   -0.930599   -0.640938
    H   -0.383554    2.174792    0.129016
    H    1.838026    0.743388    0.967817

