%NProcShared=4
#p b3lyp/6-311++G(3df,2p) freq

 b3lyp opt

0 1
    S    1.215518   -0.162090    0.732074
    S   -1.473585    0.554601   -0.403382
    C    0.214370    1.136025   -0.087131
    H    0.688167    1.448414   -1.012274
    H   -1.151915   -0.385102   -1.307571
    H    0.102109    1.996314    0.567872
    H    2.395649    0.481186    0.661135

