%NProcShared=4
#p b3lyp/6-311++G(3df,2p) freq

 b3lyp opt

2 1
S  1.435441052 -0.109680266  0.803223528
S -0.638575816  0.250528002  0.384026459
C  0.743542455  1.404211212  0.032260396
H  1.028230399  1.515802233 -1.013490815
H -0.638553649 -0.452130884 -0.793334704
H  0.718989732  2.297995955  0.654868921
H  1.349263506  0.260003603  2.120727261

