%NProcShared=4
#p b3lyp/6-311++G(3df,2p) freq

 b3lyp opt

2 3
S  1.514737549  0.025535217  1.648490077
S -0.782389571 -0.224192164 -0.338726571
C  0.591716904  0.821971452  0.278388045
H  1.286480496  1.032684516 -0.551204999
H -1.194699009  0.667815920 -1.292547052
H  0.184202683  1.784617448  0.628482186
H  2.398278677  1.058418991  1.815694112

