%NProcShared=4
#p b3lyp/6-311++G(3df,2p) freq

 b3lyp opt

1 2
    S   -0.750740    0.605580   -0.213655
    C    0.262436   -0.853599   -0.102496
    H    0.238073    1.529234   -0.322340
    H    0.927788   -0.754225    0.762916
    H    0.882978   -0.919739   -1.003705
    H   -0.396652   -1.711577   -0.005552

