%NProcShared=4
#p b3lyp/6-311++G(3df,2p) freq

 b3lyp opt

2 1
    S    0.695378   -1.866608   -0.004067
    S   -1.033130    0.671678    0.207513
    C    0.255979   -0.207473    0.634039
    H    0.957114   -2.431312    1.216216
    H   -1.617387   -0.167818   -0.699162
    H    0.931796    0.226810    1.373862
    H    2.010483   -1.583031   -0.262584

