%NProcShared=4
#p b3lyp/6-311++G(3df,2p) freq

 b3lyp opt

0 1
    S    1.551946   -0.543501   -1.611341
    S   -0.101803    0.337262   -0.142430
    C   -0.472688    1.929737   -0.077329
    H    2.405606   -0.716858   -0.590199
    H   -1.001730   -0.097387   -1.036480
    H   -0.881644    2.461942   -0.922302
    H    0.049528    2.489790    0.683716

