%NProcShared=4
#p b3lyp/6-311++G(3df,2p) freq

 b3lyp opt

1 2
    S   -0.737789   -0.054379    0.110599
    C    0.937735    0.435122    0.022655
    H   -0.624671   -1.236829    0.765754
    H    1.636531   -0.294624   -0.358603
    H    1.134133    1.496764    0.046397
    H   -1.151448    0.642617    1.198517

