%NProcShared=4
#p b3lyp/6-311++G(3df,2p) freq

 b3lyp opt

0 1
    S    1.965208    0.171000    0.865461
    S   -1.005481    0.599706    0.055870
    C    0.700374    1.236991    0.102496
    H    1.060612    1.432927   -0.904145
    H   -0.737866   -0.524295   -0.627867
    H    0.636549    2.186396    0.627893
    H    1.379166    0.063961    2.068602

