%NProcShared=4
#p b3lyp/6-311++G(3df,2p) freq

 b3lyp opt

2 1
S -0.681839800 -0.053846801  0.282389363
C  0.909653370  0.383779522 -0.066445621
H -0.643092659 -1.281504904  0.912166156
H  1.628887700 -0.397970243 -0.355285816
H  1.166330807  1.451354214 -0.145567961
H -1.185438686  0.886820304  1.158059466

