%NProcShared=4
#p b3lyp/6-311++G(3df,2p) freq

 b3lyp opt

2 3
S -0.140311044 -0.295340775 -0.121203796
C  1.493160187  0.155603783  0.079378653
H -0.790603472  0.737880011 -0.768204518
H  2.383521405 -0.313101596  0.522852992
H -0.371268299 -1.426783099 -0.901596916
H -0.862958481 -0.513947902  1.050337076

