%NProcShared=4
#p b3lyp/6-311++G(3df,2p) freq

 b3lyp opt

1 1
S  0.614910712 -0.214125560 -0.537857294
C -0.718849080 -0.904900357  0.505753869
H -1.603634916 -0.310894368  0.289725718
H  1.684433976 -0.852801888 -0.012223044
H -0.862236914 -1.928090195  0.166814735
H  0.863232989  0.938466507  0.123917896
H -0.444389970 -0.858730854  1.553815694

