%NProcShared=4
#p b3lyp/6-311++G(3df,2p) freq

 b3lyp opt

1 1
    S    0.142627    0.266424    0.647413
    S   -1.125581    0.363007   -1.008513
    C    1.240515    1.674373    0.277282
    H    1.923523    1.657514    1.129243
    H   -2.345259    0.279835   -0.424305
    H   -1.131852   -0.926347   -1.425056
    H    1.804978    1.511234   -0.635012
    H    0.697525    2.613875    0.274731

