%NProcShared=4
#p b3lyp/6-311++G(3df,2p) freq

 b3lyp opt

1 2
    S   -0.119629   -0.314848    0.672285
    C   -1.180288   -0.198541   -0.692849
    C    1.564267    0.051013    0.052478
    H   -1.329518    0.787252   -1.107526
    H    1.782369   -0.564197   -0.813899
    H   -1.809242   -1.039619   -0.939938
    H   -0.042290   -1.658006    0.779586
    H    1.571731    1.111160   -0.189271
    H    2.236853   -0.148945    0.884391

