%NProcShared=4
#p b3lyp/6-311++G(3df,2p) freq

 b3lyp opt

0 3
S  0.460057694  0.560221823 -0.394745679
C -1.008935134 -0.302016169 -0.696579769
C  1.413445661  0.270043742  1.019236699
H -1.907417038  0.046360009 -0.207808787
H  2.091399807 -0.571228745  1.006139217
H -0.934525221 -1.285819286 -1.137178631
H  1.118507990  0.760950550  1.935509061
H  1.198256776 -0.516389924 -1.077984757
H -0.314650834  1.555232183  0.367243466

