%NProcShared=4
#p b3lyp/6-311++G(3df,2p) freq

 b3lyp opt

2 1
    S    1.391737   -1.463079    1.313869
    C   -0.140784    0.502941   -0.135066
    C    0.432723   -0.175009    1.077466
    H   -1.252352    0.591209   -0.129138
    H    0.494501    0.415155   -1.141524
    H    0.100658    1.588876   -0.211241
    H   -0.321279   -0.186521   -1.092198
    H    0.133362    0.312665    2.009324
    H    1.608271   -1.868586    0.031196

