%NProcShared=4
#p b3lyp/6-311++G(3df,2p) freq

 b3lyp opt

0 1
    S   -0.161892   -0.077379    0.581448
    C   -1.186272   -0.066784   -0.703278
    C    1.563233   -0.053521   -0.011625
    H   -2.086461    0.501041   -0.541370
    H    1.693123   -0.796461   -0.794857
    H   -1.144822   -0.822587   -1.471712
    H    0.023479   -1.328584    1.159775
    H    1.754876    0.941017   -0.405349
    H    2.218992   -0.271471    0.832227

