%NProcShared=4
#p b3lyp/6-311++G(3df,2p) freq

 b3lyp opt

0 1
    S   -0.293089    0.546648   -0.083571
    C   -1.630040   -0.111460    0.367465
    C    1.396624   -0.230157   -0.243508
    H   -0.021586    1.379399   -1.227344
    H    2.134657    0.565486   -0.358764
    H   -2.055895   -0.867742   -0.282660
    H    1.570521   -0.819630    0.653588
    H    1.372893   -0.869389   -1.123445
    H    0.061473    1.499368    0.804775

