%NProcShared=4
#p b3lyp/6-311++G(3df,2p) freq

 b3lyp opt

0 1
    S    0.367108    0.352555   -0.192927
    C   -1.106236   -0.325285   -0.277195
    C    1.313025   -0.151696    1.027007
    H   -1.878723    0.268515   -0.740269
    H    2.377359   -0.090407    0.861854
    H   -1.162221   -1.399211   -0.217607
    H    0.882696   -0.166019    2.014219
    H    1.356743    0.371310   -1.176832
    H   -0.031732    1.658313   -0.482797

