%NProcShared=4
#p b3lyp/6-311++G(3df,2p) freq

 b3lyp opt

2 3
    S    0.397235    0.420805   -0.258115
    C   -1.016228   -0.558430   -0.529376
    C    1.243288    0.127717    1.234854
    H   -1.675363   -0.705941    0.323875
    H    1.368559   -0.913531    1.525235
    H   -1.183501   -0.895537   -1.551300
    H    1.654583    1.001459    1.738242
    H    1.193998    0.266660   -1.373787
    H    0.135449    1.774871   -0.294178

