%NProcShared=4
#p b3lyp/6-311++G(3df,2p) freq

 b3lyp opt

2 3
    S   -0.112861    0.675096   -0.109918
    C   -1.576213   -0.127983    0.206851
    C    1.467625   -0.288990   -0.241678
    H   -0.232081    1.481338   -1.224834
    H    2.231371    0.484058   -0.388074
    H   -2.131982   -0.960485   -0.234559
    H    1.558242   -0.824694    0.706805
    H    1.335220   -0.942422   -1.108056
    H   -0.003762    1.596606    0.900001

