%NProcShared=2
#p b3lyp/6-311++G(3df,2p) opt(MaxCycles=200) Symmetry=None

 b3lyp opt

-1 4
    C   -0.132715   -0.007341    0.013247
    C   -1.071971    0.853602   -0.120201
    C    0.807992   -0.869090    0.147010
    C   -2.027286    1.730428   -0.255772
    O    1.659612   -1.650340    0.268104

